Mass spectrum: Zeaxanthin; LC-ESI-QTOF; MS2; POSITIVE; ESI; [M+H]+; CE 20 V
Name: Zeaxanthin
Class: Natural products; Carotenoids, Xanthophyll
Formula: C40H56O2
Exact mass: 568.4280
SMILES: CC1=C(C(C[C@@H](C1)O)(C)C)/C=C/C(=C/C=C/C(=C/C=C/C=C(/C=C/C=C(/C=C/C2=C(C[C@H](CC2(C)C)O)C)\C)\C)/C)/C
InChI: InChI=1S/C40H56O2/c1-29(17-13-19-31(3)21-23-37-33(5)25-35(41)27-39(37,7)8)15-11-12-16-30(2)18-14-20-32(4)22-24-38-34(6)26-36(42)28-40(38,9)10/h11-24,35-36,41-42H,25-28H2,1-10H3/b12-11+,17-13+,18-14+,23-21+,24-22+,29-15+,30-16+,31-19+,32-20+/t35-,36-/m1/s1
Instrument: Xevo G2-S QtOF, Waters (USA) coupled to ACQUITY UPLC, Waters (USA).
Instrument type: LC-ESI-QTOF
Ms type: MS2
Ion mode: POSITIVE
Ionization: ESI
Collision energy: 20 V
Precursor type: [M+H]+
Precursor m/z: 569.4353
m/z	relative intensity
93.07	52
95.085	60
107.085	83
109.101	111
119.086	254
120.092	56
121.101	157
123.117	67
131.086	65
133.101	159
134.106	55
135.117	248
145.101	188
147.117	95
149.096	53
149.132	50
157.101	141
158.108	66
159.117	188
160.122	59
161.132	101
169.099	56
171.117	130
172.122	71
173.133	227
174.14	67
175.148	368
176.151	71
183.117	154
185.132	105
187.149	188
195.117	84
197.132	182
198.138	68
199.148	75
201.128	62
201.163	180
203.142	75
209.131	197
210.138	56
211.149	112
213.163	57
217.158	97
219.176	102
221.132	79
223.147	89
225.164	97
235.148	77
237.163	84
239.179	108
249.164	51
257.19	98
259.206	62
265.195	105
270.197	78
271.204	83
272.211	86
275.179	66
277.193	53
283.206	125
285.222	91
297.22	92
323.236	65
337.254	59
461.34	57
476.365	999
477.369	449
478.37	83
568.37	67
568.427	593
569.312	333
569.43	333
570.318	106
570.439	85
571.234	89
571.311	55
