Mass spectrum: Ofloxacin; LC-ESI-QQ; MS2; [M+H]+; CE 20 V
Name: Ofloxacin
Class: Non-Natural Product
Formula: C18H20FN3O4
Exact mass: 361.14378
SMILES: CC1COC2=C3N1C=C(C(=O)C3=CC(=C2N4CCN(CC4)C)F)C(=O)O
InChI: InChI=1S/C18H20FN3O4/c1-10-9-26-17-14-11(16(23)12(18(24)25)8-22(10)14)7-13(19)15(17)21-5-3-20(2)4-6-21/h7-8,10H,3-6,9H2,1-2H3,(H,24,25)
Instrument: Acquity UPLC and a Xevo TQ (Waters)
Instrument type: LC-ESI-QQ
Ms type: MS2
Ion mode: POSITIVE
Collision energy: 20 V
Ionization: ESI
Column name: L-column 2 ODS
Precursor m/z: 362.15215
Precursor type: [M+H]+
m/z	relative intensity
261	338
316	44
318	999
344	36
362	224
