Mass spectrum: L-gamma-Glutamyl-S-4-(2-hydroxybutyl)-L-cysteinyl-glycine; ESI-QQ; MS2; CE 10 eV; [M+H]+
Name: L-gamma-Glutamyl-S-4-(2-hydroxybutyl)-L-cysteinyl-glycine
Class: Synthetic compound; Peptide
Formula: C14H25N3O7S
Exact mass: 379.1413
SMILES: O=C(N[C@@H](CSCCC(C)O)C(=O)NCC(=O)O)CC[C@H](N)C(=O)O
InChI: InChI=1S/C14H25N3O7S/c1-8(18)4-5-25-7-10(13(22)16-6-12(20)21)17-11(19)3-2-9(15)14(23)24/h8-10,18H,2-7,15H2,1H3,(H,16,22)(H,17,19)(H,20,21)(H,23,24)/t8?,9-,10-/m0/s1
Instrument: Quattro Premier, Micromass (USA) coupled to Alliance HT 2795, Waters (USA).
Instrument type: LC-ESI-QQ
Ms type: MS2
Ion mode: POSITIVE
Ionization: ESI
Collision energy: 10 eV
Column name: C18(ODS), Cosmosil 5C18-AR-II, 4.6 x 150 mm, 4.4 micrometer
Precursor type: [M+H]+
Precursor m/z: 380.1486
m/z	relative intensity
104.0	8
128.0	12
144.1	13
144.8	8
147.7	55
161.7	21
174.2	5
199.1	11
215.3	12
216.0	9
232.9	11
233.9	260
241.8	13
251.0	624
304.9	99
305.5	10
316.8	19
362.1	7
362.6	6
379.9	999
380.6	17
