Mass spectrum: n-Dodecane; CI-Q; MS; Positive; Reactant ion NO+
Name: n-Dodecane
Class: Synthetic compound; alkanes
Formula: C12H26
Exact mass: 170.2035
SMILES: CCCCCCCCCCCC
InChI: InChI=1S/C12H26/c1-3-5-7-9-11-12-10-8-6-4-2/h3-12H2,1-2H3
Instrument: PTR-QMS 500 (IONICON Analytik GmbH, Innsbruck, Austria)
Instrument type: CI-Q
Ms type: MS
Ion mode: POSITIVE
Ionization: CI
m/z	relative intensity
43	2
57	18
71	17
85	20
99	17
113	16
127	9
144	2
155	3
169	999
