Mass spectrum: (5R,11R)-5,11-dimethylpentacosane; GC-EI-TOF; MS; positive; EI
Name: (5R,11R)-5,11-dimethylpentacosane
Class: Synthetic compounds
Formula: C27H56
Exact mass: 380.4382
SMILES: C[C@H](CCCC)CCCCC[C@H](C)CCCCCCCCCCCCCC
InChI: InChI=1S/C27H56/c1-5-7-9-10-11-12-13-14-15-16-17-19-23-27(4)25-21-18-20-24-26(3)22-8-6-2/h26-27H,5-25H2,1-4H3/t26-,27-/m1/s1
Instrument: JMS-T100GCV (JEOL, Akishima, Japan) coupled to Agilent 7890A(USA)
Instrument type: GC-EI-TOF
Ms type: MS
Ion mode: POSITIVE
Ionization: EI
Column name: HP-5 19091 J-413 USD364547H (Agilent), Length 30 m, I.D. 0.32 mm, Thickness 0.25 micrometer.
Retention time: 11.87 min
m/z	relative intensity
27.025	18
29.04	74
39.025	13
41.04	218
42.048	59
43.056	859
44.059	27
53.04	8
54.048	15
55.056	276
56.063	183
57.071	999
58.075	42
67.056	24
68.063	26
69.071	206
70.079	119
71.087	629
72.09	33
81.071	15
82.079	24
83.087	123
84.095	246
85.102	679
86.106	42
95.087	8
96.095	21
97.103	109
98.11	53
99.118	159
100.122	11
110.11	8
111.118	51
112.125	34
113.134	103
114.137	8
124.126	18
125.134	77
126.14	24
127.149	74
128.153	7
139.149	11
140.157	39
141.165	56
142.168	6
153.165	7
154.173	33
155.18	59
156.184	7
167.18	5
169.196	21
182.204	83
183.212	164
184.215	22
196.22	25
197.226	18
207.034	6
211.243	10
223.242	9
224.251	121
225.258	95
226.262	14
238.266	9
239.274	13
253.289	9
267.305	7
281.321	7
294.328	13
295.336	35
296.34	7
322.36	25
323.368	97
324.371	23
337.383	9
351.399	19
365.415	30
366.418	8
380.438	6
