Mass spectrum: Lycopene; LC-ESI-QTOF; MS2; POSITIVE; ESI; [M+H]+; COLLISION_ENERGY 20 eV.
Name: Lycopene
Name: All-trans-Lycopene
Class: Natural product; carotenoids, carotene
Formula: C40H56
Exact mass: 536.4382
SMILES: CC(=CCC/C(=C/C=C/C(=C/C=C/C(=C/C=C/C=C(/C=C/C=C(/C=C/C=C(/CCC=C(C)C)\C)\C)\C)/C)/C)/C)C
InChI: InChI=1S/C40H56/c1-33(2)19-13-23-37(7)27-17-31-39(9)29-15-25-35(5)21-11-12-22-36(6)26-16-30-40(10)32-18-28-38(8)24-14-20-34(3)4/h11-12,15-22,25-32H,13-14,23-24H2,1-10H3/b12-11+,25-15+,26-16+,31-17+,32-18+,35-21+,36-22+,37-27+,38-28+,39-29+,40-30+
Instrument: Xevo G2-S QtOF, Waters (USA) coupled to ACQUITY UPLC, Waters (USA).
Instrument type: LC-ESI-QTOF
Ms type: MS2
Ion mode: POSITIVE
Ionization: ESI
Collision energy: 20 V
Precursor type: [M+H]+
Precursor m/z: 537.4455
m/z	relative intensity
69.07	349
81.07	499
83.085	150
93.07	365
95.086	449
105.071	223
107.086	526
108.088	57
109.101	549
111.118	60
119.086	825
120.09	147
121.102	694
122.106	61
123.118	499
131.086	190
132.094	52
133.102	743
134.106	96
135.118	411
137.133	181
143.086	235
144.092	75
145.102	999
146.105	113
147.117	524
148.122	58
149.132	217
155.087	51
156.092	94
157.102	879
158.106	175
159.117	587
160.121	115
161.133	380
162.137	53
163.149	64
169.102	482
170.108	97
171.117	749
172.121	139
173.133	677
174.137	174
175.149	485
176.153	94
177.163	151
183.117	616
184.123	104
185.133	517
186.136	94
187.148	416
188.155	163
189.164	163
195.117	308
196.123	110
197.133	523
198.139	118
199.148	375
200.154	112
201.163	140
203.179	112
207.118	207
208.124	75
209.133	743
210.138	177
211.148	393
212.153	126
213.163	296
214.168	76
215.18	157
221.133	333
222.14	96
223.149	324
224.154	119
225.164	272
226.168	93
227.181	127
229.196	85
233.133	120
234.141	53
235.148	338
236.153	110
237.164	266
238.168	87
239.181	88
241.196	181
242.198	61
243.21	67
245.131	50
246.142	55
247.149	154
248.156	69
249.164	325
250.167	74
251.18	324
253.195	104
254.202	52
255.21	105
259.148	86
260.156	55
261.162	217
261.171	74
262.169	126
263.178	163
264.185	67
265.196	155
267.211	266
269.227	272
270.23	91
273.163	178
275.179	250
276.185	99
277.194	240
278.2	61
279.213	119
281.226	177
282.231	65
285.164	58
287.18	82
289.195	113
290.202	65
291.21	149
293.227	157
301.195	92
303.21	78
306.232	59
307.242	84
309.255	61
315.213	94
317.226	123
319.243	116
329.226	116
330.234	102
331.241	137
332.249	61
333.258	153
335.274	59
343.242	190
344.247	72
345.259	130
346.266	89
347.271	73
350.298	69
357.255	118
359.275	93
361.287	57
371.276	52
375.306	267
376.309	86
383.274	114
385.289	119
386.291	52
387.302	107
397.288	114
398.297	120
399.303	199
411.304	182
412.311	121
413.319	81
425.318	167
426.325	52
427.337	67
442.36	107
444.372	72
451.336	66
452.341	54
453.35	115
454.362	134
465.35	85
467.367	936
468.372	342
469.373	67
493.383	81
521.416	163
535.113	123
535.278	60
535.361	107
535.432	377
535.471	95
535.61	57
536.341	55
536.437	786
537.341	277
537.392	70
537.441	371
538.346	92
538.443	66
539.354	103
