Mass spectrum: KU60648; LC-ESI-FT; MS2; CE: 25,60,100%; R=17500; [M+H]+
Name: KU60648
Name: 2-(4-ethylpiperazin-1-yl)-N-[4-(2-morpholin-4-yl-4-oxochromen-8-yl)dibenzothiophen-1-yl]acetamide
Class: Non-Natural Product; Pharmaceutical drug
Formula: C33H34N4O4S
Exact mass: 582.2301
SMILES: CCN1CCN(CC1)CC(Nc(ccc2c(ccc3)c4c3c(=O)cc(N5CCOCC5)o4)c6c2sc7c6cccc7)=O
InChI: InChI=1S/C33H34N4O4S/c1-2-35-12-14-36(15-13-35)21-29(39)34-26-11-10-23(33-31(26)25-6-3-4-9-28(25)42-33)22-7-5-8-24-27(38)20-30(41-32(22)24)37-16-18-40-19-17-37/h3-11,20H,2,12-19,21H2,1H3,(H,34,39)
Instrument: Dionex Ultimate 3000 UHPLC Thermo Scientific; Q Exactive Focus Orbitrap MS Thermo Scientific
Instrument type: LC-ESI-FT
Ms type: MS2
Ion mode: POSITIVE
Ionization: ESI
Fragmentation mode: HCD
Collision energy: 25,60,100 (stepped)
Resolution: 17500
Column name: Accucore 150 Amide, 2.6um, 2.1x100mm, Thermo Scientific
Retention time: 0.078 min
Base peak: 583.2377
Precursor m/z: 583.2374
Precursor type: [M+H]+
m/z	relative intensity	assigned
56.0496	91	C3H6N+
70.065	699	C4H8N+
84.0807	697	C5H10N+
97.076	53	C5H9N2+
98.0839	159	C5H10N2+
112.0997	68	C6H12N2+
127.123	404	C7H15N2+
262.069	49	C17H12NS+
273.0617	58	C12H9N4O4+
429.1254	172	C31H15N3+
441.125	103	C32H15N3+
442.1297	54	C29H18N2O3+
583.237	999	C33H35N4O4S+
