Mass spectrum: omeprazole_BTP_M1; LC-ESI-FT; MS2; CE: 25,60,100%; R=17500; [M+H]+
Name: omeprazole_BTP_M1
Name: Omeprazole sulfone
Name: 6-methoxy-2-[(4-methoxy-3,5-dimethylpyridin-2-yl)methylsulfonyl]-1H-benzimidazole
Formula: C17H19N3O4S
Exact mass: 361.1096
SMILES: CC1=CN=C(C(=C1OC)C)CS(=O)(=O)C2=NC3=C(N2)C=C(C=C3)OC
InChI: InChI=1S/C17H19N3O4S/c1-10-8-18-15(11(2)16(10)24-4)9-25(21,22)17-19-13-6-5-12(23-3)7-14(13)20-17/h5-8H,9H2,1-4H3,(H,19,20)
Instrument: Dionex Ultimate 3000 UHPLC Thermo Scientific; Q Exactive Focus Orbitrap MS Thermo Scientific
Instrument type: LC-ESI-FT
Ms type: MS2
Ion mode: POSITIVE
Ionization: ESI
Fragmentation mode: HCD
Collision energy: 25,60,100% (stepped)
Resolution: 17500
Column name: Accucore 150 Amide, 2.6um, 2.1x100mm, Thermo Scientific
Retention time: 0.008 min
Base peak: 362.1168
Precursor m/z: 362.1169
Precursor type: [M+H]+
m/z	relative intensity	assigned
51.023	130	C4H3+
53.0386	31	C4H5+
65.0386	109	C5H5+
66.0464	41	C5H6+
77.0386	113	C6H5+
78.0464	25	C6H6+
79.0417	48	C5H5N+
79.0543	51	C6H7+
91.0543	86	C7H7+
93.0574	23	C6H7N+
93.0699	47	C7H9+
94.0652	52	C6H8N+
95.0492	194	C6H7O+
105.0448	99	C6H5N2+
106.0526	78	C6H6N2+
106.0652	70	C7H8N+
107.073	26	C7H9N+
108.0808	88	C7H10N+
118.0653	25	C8H8N+
120.0809	322	C8H10N+
121.0842	27	C3H11N3O2+
121.0887	22	C8H11N+
122.0965	41	C8H12N+
134.0475	32	C7H6N2O+
136.0758	127	C8H10NO+
149.071	515	C8H9N2O+
150.0914	222	C9H12NO+
151.0992	205	C9H13NO+
152.1026	23	C4H14N3O3+
166.0863	152	C9H12NO2+
167.0897	22	C4H13N3O4+
168.1019	999	C9H14NO2+
169.1054	103	C4H15N3O4+
191.1179	35	C11H15N2O+
195.0223	224	C8H7N2O2S+
214.0533	91	C9H12NO3S+
283.1316	34	C16H17N3O2+
298.1552	108	C17H20N3O2+
362.1171	289	C17H20N3O4S+
