Mass spectrum: KU60648_BTP_M5; LC-ESI-FT; MS2; CE: 25,60,100%; R=17500; [M+H]+
Name: KU60648_BTP_M5
Formula: C27H22N2O5S
Exact mass: 486.1249
Instrument: Dionex Ultimate 3000 UHPLC Thermo Scientific; Q Exactive Focus Orbitrap MS Thermo Scientific
Instrument type: LC-ESI-FT
Ms type: MS2
Ion mode: POSITIVE
Ionization: ESI
Fragmentation mode: HCD
Collision energy: 25,60,100% (stepped)
Resolution: 17500
Column name: Accucore 150 Amide, 2.6um, 2.1x100mm, Thermo Scientific
Retention time: 0.012 min
Base peak: 487.1321
Precursor m/z: 487.1322
Precursor type: [M+H]+
m/z	relative intensity	assigned
112.0757	76	C6H10NO+
245.0414	85	C17H9S+
245.0418	71	C17H9S+
260.0522	164	C17H10NS+
260.0532	174	C17H10NS+
262.068	88	C17H12NS+
262.0687	80	C17H12NS+
272.0507	120	C15H12O3S+
272.0525	99	C18H10NS+
273.0594	140	C18H11NS+
273.0604	127	C18H11NS+
274.0668	83	C15H14O3S+
274.068	72	C18H12NS+
274.0691	96	C18H12NS+
290.0629	76	C18H12NOS+
318.0568	73	C16H14O5S+
371.0856	75	C22H15N2O2S+
429.1263	127	C25H21N2O3S+
429.1275	114	C25H21N2O3S+
441.1257	82	C26H21N2O3S+
441.128	69	C26H21N2O3S+
487.1326	999	C27H23N2O5S+
