Mass spectrum: sunitinib_BTP_M6; LC-ESI-FT; MS2; CE: 25,60,100%; R=17500; [M+H]+
Name: sunitinib_BTP_M6
Formula: C28H35FN4O8
Exact mass: 574.2439
Instrument: Dionex Ultimate 3000 UHPLC Thermo Scientific; Q Exactive Focus Orbitrap MS Thermo Scientific
Instrument type: LC-ESI-FT
Ms type: MS2
Ion mode: POSITIVE
Ionization: ESI
Fragmentation mode: HCD
Collision energy: 25,60,100% (stepped)
Resolution: 17500
Column name: Accucore 150 Amide, 2.6um, 2.1x100mm, Thermo Scientific
Retention time: 0.105 min
Base peak: 575.2511
Precursor m/z: 575.2512
Precursor type: [M+H]+
m/z	relative intensity	assigned
100.1117	49	CH13FN4+
148.0555	37	C9H7FN+
150.035	35	C8H5FNO+
183.0605	169	C13H8F+
183.0609	58	C4H11N2O6+
185.0637	119	C12H8FN+
186.071	126	C12H9FN+
186.0717	82	C12H9FN+
189.0457	55	CH9N4O7+
189.0462	146	CH9N4O7+
189.0471	7	CH9N4O7+
190.0652	29	C14H8N+
198.0716	50	C13H9FN+
200.0873	74	C13H11FN+
209.0633	146	C14H8FN+
210.0712	217	C14H9FN+
212.0736	38	C13H9FN2+
214.066	165	C13H9FNO+
214.0663	77	C13H9FNO+
224.0737	31	C14H9FN2+
225.08	58	C11H12FNO3+
225.0816	51	C14H10FN2+
227.0976	149	C14H12FN2+
228.0809	37	C17H10N+
228.0819	59	C14H11FNO+
236.0743	43	C15H9FN2+
237.082	111	C15H10FN2+
238.0662	233	C15H9FNO+
238.0671	108	C6H12N3O7+
239.0643	52	C7H13NO8+
239.0652	65	C10H11N2O5+
239.0663	103	C10H11N2O5+
240.066	80	C11H11FNO4+
240.0673	149	C11H11FNO4+
240.0687	96	C17H8N2+
253.0768	58	C15H10FN2O+
254.0832	25	C18H10N2+
255.0925	155	C15H12FN2O+
282.1042	52	C21H14O+
283.0877	999	C16H12FN2O2+
284.0909	175	C14H12N4O3+
307.0876	89	C18H12FN2O2+
325.0974	169	C21H13N2O2+
326.1299	23	C18H17FN3O2+
326.1308	302	C20H19FO3+
327.1322	47	C12H22FNO8+
327.1341	96	C18H19N2O4+
368.14	132	C20H19FN3O3+
368.1409	86	C25H20O3+
369.1434	38	C20H21N2O5+
459.1196	540	C22H20FN2O8+
460.1209	18	C26H19FNO6+
502.1624	323	C24H25FN3O8+
503.1636	78	C28H24FN2O6+
575.2512	450	C28H36FN4O8+
