Mass spectrum: amitriptyline_BTP_M2; LC-ESI-FT; MS2; CE: 25,60,100%; R=17500; [M+H]+
Name: amitriptyline_BTP_M2
Formula: C19H21NO
Exact mass: 279.1623
Instrument: Dionex Ultimate 3000 UHPLC Thermo Scientific; Q Exactive Focus Orbitrap MS Thermo Scientific
Instrument type: LC-ESI-FT
Ms type: MS2
Ion mode: POSITIVE
Ionization: ESI
Fragmentation mode: HCD
Collision energy: 25,60,100% (stepped)
Resolution: 17500
Column name: Accucore 150 Amide, 2.6um, 2.1x100mm, Thermo Scientific
Retention time: 0.030 min
Base peak: 280.1694
Precursor m/z: 280.1696
Precursor type: [M+H]+
m/z	relative intensity	assigned
70.0651	505	C4H8N+
95.0855	235	C7H11+
115.0542	331	C9H7+
152.062	342	C12H8+
153.0698	373	C12H9+
189.0699	351	C15H9+
191.0855	370	C15H11+
205.1012	418	C16H13+
213.0698	315	C17H9+
215.0855	374	C17H11+
216.0933	534	C17H12+
231.1169	508	C18H15+
262.1591	999	C19H20N+
