Mass spectrum: amitriptyline_BTP_M5; LC-ESI-FT; MS2; CE: 25,60,100%; R=17500; [M+H]+
Name: amitriptyline_BTP_M5
Formula: C19H21NO4S
Exact mass: 359.1191
Instrument: Dionex Ultimate 3000 UHPLC Thermo Scientific; Q Exactive Focus Orbitrap MS Thermo Scientific
Instrument type: LC-ESI-FT
Ms type: MS2
Ion mode: POSITIVE
Ionization: ESI
Fragmentation mode: HCD
Collision energy: 25,60,100% (stepped)
Resolution: 17500
Column name: Accucore 150 Amide, 2.6um, 2.1x100mm, Thermo Scientific
Retention time: 0.020 min
Base peak: 360.1263
Precursor m/z: 360.1264
Precursor type: [M+H]+
m/z	relative intensity	assigned
73.0284	597	C3H5O2+
249.1274	999	C18H17O+
280.1693	758	C19H22NO+
