Mass spectrum: acetaminophen_BTP_M5; LC-ESI-FT; MS2; CE: 25,60,100%; R=17500; [M+H]+
Name: acetaminophen_BTP_M5
Name: 2-Hydroxyacetaminophen sulfate
Name: (4-acetamido-3-hydroxyphenyl) hydrogen sulfate
Formula: C8H9NO6S
Exact mass: 247.0151
SMILES: CC(=O)NC1=C(C=C(C=C1)OS(=O)(=O)O)O
InChI: InChI=1S/C8H9NO6S/c1-5(10)9-7-3-2-6(4-8(7)11)15-16(12,13)14/h2-4,11H,1H3,(H,9,10)(H,12,13,14)
Instrument: Dionex Ultimate 3000 UHPLC Thermo Scientific; Q Exactive Focus Orbitrap MS Thermo Scientific
Instrument type: LC-ESI-FT
Ms type: MS2
Ion mode: POSITIVE
Ionization: ESI
Fragmentation mode: HCD
Collision energy: 25,60,100% (stepped)
Resolution: 17500
Column name: Accucore 150 Amide, 2.6um, 2.1x100mm, Thermo Scientific
Retention time: 0.008 min
Base peak: 248.0222
Precursor m/z: 248.0223
Precursor type: [M+H]+
m/z	relative intensity	assigned
52.0307	131	C4H4+
53.0385	217	C4H5+
80.0494	314	C5H6N+
96.0444	128	C5H6NO+
108.0443	642	C6H6NO+
125.0471	165	C6H7NO2+
126.0549	765	C6H8NO2+
134.06	394	C8H8NO+
168.0655	999	C8H10NO3+
248.0224	293	C8H10NO6S+
