Mass spectrum: lansoprazole_BTP_M3; LC-ESI-FT; MS2; CE: 25,60,100%; R=17500; [M+H]+
Name: lansoprazole_BTP_M3
Name: 3-methyl-2-(methylsulfinylmethyl)-4-(2,2,2-trifluoroethoxy)pyridine
Formula: C10H12F3NO2S
Exact mass: 267.0541
SMILES: CC1=C(OCC(F)(F)F)C=CN=C1CS(C)=O
InChI: InChI=1S/C10H12F3NO2S/c1-7-8(5-17(2)15)14-4-3-9(7)16-6-10(11,12)13/h3-4H,5-6H2,1-2H3
Instrument: Dionex Ultimate 3000 UHPLC Thermo Scientific; Q Exactive Focus Orbitrap MS Thermo Scientific
Instrument type: LC-ESI-FT
Ms type: MS2
Ion mode: POSITIVE
Ionization: ESI
Fragmentation mode: HCD
Collision energy: 25,60,100% (stepped)
Resolution: 17500
Column name: Accucore 150 Amide, 2.6um, 2.1x100mm, Thermo Scientific
Retention time: 0.010 min
Base peak: 268.0612
Precursor m/z: 268.0614
Precursor type: [M+H]+
m/z	relative intensity	assigned
51.0228	81	C4H3+
65.0385	107	C5H5+
66.0463	90	C5H6+
77.0385	88	C6H5+
79.0542	72	C6H7+
80.0494	135	C5H6N+
92.0494	164	C6H6N+
93.0572	94	C6H7N+
95.0491	65	C6H7O+
96.0443	132	C5H6NO+
106.0651	214	C7H8N+
107.0729	355	C7H9N+
108.0807	120	C7H10N+
122.06	139	C7H8NO+
136.0757	999	C8H10NO+
137.0791	79	C3H12F3O2+
185.0647	137	C9H9F2NO+
190.0474	85	C8H7F3NO+
205.0709	884	C9H10F3NO+
268.0615	244	C10H13F3NO2S+
