Mass spectrum: lansoprazole_BTP_M5; LC-ESI-FT; MS2; CE: 25,60,100%; R=17500; [M+H]+
Name: lansoprazole_BTP_M5
Name: (3-Methyl-4-(2,2,2-trifluoroethoxy)pyridin-2-yl)methanol
Name: [3-methyl-4-(2,2,2-trifluoroethoxy)pyridin-2-yl]methanol
Formula: C9H10F3NO2
Exact mass: 221.0664
SMILES: CC1=C(C=CN=C1CO)OCC(F)(F)F
InChI: InChI=1S/C9H10F3NO2/c1-6-7(4-14)13-3-2-8(6)15-5-9(10,11)12/h2-3,14H,4-5H2,1H3
Instrument: Dionex Ultimate 3000 UHPLC Thermo Scientific; Q Exactive Focus Orbitrap MS Thermo Scientific
Instrument type: LC-ESI-FT
Ms type: MS2
Ion mode: POSITIVE
Ionization: ESI
Fragmentation mode: HCD
Collision energy: 25,60,100% (stepped)
Resolution: 17500
Column name: Accucore 150 Amide, 2.6um, 2.1x100mm, Thermo Scientific
Retention time: 0.012 min
Base peak: 222.0735
Precursor m/z: 222.0736
Precursor type: [M+H]+
m/z	relative intensity	assigned
42.0338	999	C2H4N+
