Mass spectrum: lansoprazole_BTP_M6; LC-ESI-FT; MS2; CE: 25,60,100%; R=17500; [M+H]+
Name: lansoprazole_BTP_M6
Name: Lansoprazole Sulfone
Name: 2-[[3-methyl-4-(2,2,2-trifluoroethoxy)pyridin-2-yl]methylsulfonyl]-1H-benzimidazole
Formula: C16H14F3N3O3S
Exact mass: 385.0708
SMILES: CC1=C(C=CN=C1CS(=O)(=O)C2=NC3=CC=CC=C3N2)OCC(F)(F)F
InChI: InChI=1S/C16H14F3N3O3S/c1-10-13(20-7-6-14(10)25-9-16(17,18)19)8-26(23,24)15-21-11-4-2-3-5-12(11)22-15/h2-7H,8-9H2,1H3,(H,21,22)
Instrument: Dionex Ultimate 3000 UHPLC Thermo Scientific; Q Exactive Focus Orbitrap MS Thermo Scientific
Instrument type: LC-ESI-FT
Ms type: MS2
Ion mode: POSITIVE
Ionization: ESI
Fragmentation mode: HCD
Collision energy: 25,60,100% (stepped)
Resolution: 17500
Column name: Accucore 150 Amide, 2.6um, 2.1x100mm, Thermo Scientific
Retention time: 0.008 min
Base peak: 386.078
Precursor m/z: 386.0781
Precursor type: [M+H]+
m/z	relative intensity	assigned
106.0651	257	C7H8N+
135.0553	999	C7H7N2O+
136.0757	248	C8H10NO+
205.0707	317	C9H10F3NO+
222.0737	248	C9H11F3NO2+
252.0301	947	C9H9F3NO2S+
