Mass spectrum: sunitinib_BTP_M9; LC-ESI-FT; MS2; CE: 25,60,100%; R=17500; [M+H]+
Name: sunitinib_BTP_M9
Name: Sunitinib metabolite M9
Name: N-[2-(diethylamino)ethyl]-5-[(5-fluoro-2-hydroxy-1H-indol-3-yl)methyl]-2,4-dimethyl-1H-pyrrole-3-carboxamide
Formula: C22H29FN4O2
Exact mass: 400.2275
SMILES: CCN(CC)CCNC(=O)C1=C(NC(=C1C)CC2=C(NC3=C2C=C(C=C3)F)O)C
InChI: InChI=1S/C22H29FN4O2/c1-5-27(6-2)10-9-24-22(29)20-13(3)19(25-14(20)4)12-17-16-11-15(23)7-8-18(16)26-21(17)28/h7-8,11,25-26,28H,5-6,9-10,12H2,1-4H3,(H,24,29)
Instrument: Dionex Ultimate 3000 UHPLC Thermo Scientific; Q Exactive Focus Orbitrap MS Thermo Scientific
Instrument type: LC-ESI-FT
Ms type: MS2
Ion mode: POSITIVE
Ionization: ESI
Fragmentation mode: HCD
Collision energy: 25,60,100% (stepped)
Resolution: 17500
Column name: Accucore 150 Amide, 2.6um, 2.1x100mm, Thermo Scientific
Retention time: 0.050 min
Base peak: 401.2346
Precursor m/z: 401.2347
Precursor type: [M+H]+
m/z	relative intensity	assigned
65.0384	350	FH4N3+
70.0411	368	C4H6O+
79.0541	193	CH6FN3+
93.0332	204	CH4FN3O+
106.0648	556	C2H7FN4+
107.0729	297	C7H9N+
134.0599	698	C3H7FN4O+
285.103	999	C16H14FN2O2+
328.1446	331	C21H18N3O+
