Mass spectrum: bisoprolol; LC-ESI-FT; MS2; CE: 25,60,100%; R=17500; [M+H]+
Name: bisoprolol
Formula: C17H29NO4
Exact mass: 311.2097
SMILES: CC(C)NCC(COC1=CC=C(C=C1)OCCOC(C)C)O
InChI: InChI=1S/C17H29NO4/c1-13(2)18-11-15(19)12-22-17-7-5-16(6-8-17)21-10-9-20-14(3)4/h5-8,13-15,18-19H,9-12H2,1-4H3
Instrument: Dionex Ultimate 3000 UHPLC Thermo Scientific; Q Exactive Focus Orbitrap MS Thermo Scientific
Instrument type: LC-ESI-FT
Ms type: MS2
Ion mode: POSITIVE
Ionization: ESI
Fragmentation mode: HCD
Collision energy: 25,60,100% (stepped)
Resolution: 17500
Column name: Accucore 150 Amide, 2.6um, 2.1x100mm, Thermo Scientific
Retention time: 0.027 min
Base peak: 312.2168
Precursor m/z: 312.2169
Precursor type: [M+H]+
m/z	relative intensity	assigned
56.0494	222	C3H6N+
74.06	400	C3H8NO+
116.1071	999	C6H14NO+
154.1226	242	C9H16NO+
