Mass spectrum: KU60648_BTP_M8; LC-ESI-FT; MS2; CE: 25,60,100%; R=17500; [M+H]+
Name: KU60648_BTP_M8
Formula: C31H30N4O5S
Exact mass: 570.1937
Instrument: Dionex Ultimate 3000 UHPLC Thermo Scientific; Q Exactive Focus Orbitrap MS Thermo Scientific
Instrument type: LC-ESI-FT
Ms type: MS2
Ion mode: POSITIVE
Ionization: ESI
Fragmentation mode: HCD
Collision energy: 25,60,100% (stepped)
Resolution: 17500
Column name: Accucore 150 Amide, 2.6um, 2.1x100mm, Thermo Scientific
Retention time: 0.017 min
Base peak: 571.2009
Precursor m/z: 571.201
Precursor type: [M+H]+
m/z	relative intensity	assigned
89.0597	99	C4H9O2+
115.0866	77	C5H11N2O+
133.0859	70	C6H13O3+
260.051	117	C14H12O3S+
260.0521	126	C17H10NS+
272.0516	74	C18H10NS+
272.0531	65	C18H10NS+
273.0595	92	C18H11NS+
273.0606	84	C18H11NS+
288.0464	104	C18H10NOS+
288.0476	95	C18H10NOS+
288.0483	69	C18H10NOS+
371.2266	64	C21H31N4S+
427.123	84	C26H21NO3S+
428.1183	128	C31H14N3+
428.1204	108	C25H20N2O3S+
429.1242	112	C31H15N3+
429.1256	91	C31H15N3+
429.1275	88	C31H15N3+
441.1257	111	C26H21N2O3S+
441.1269	105	C26H21N2O3S+
441.1291	108	C29H19N3S+
455.1058	382	C26H19N2O4S+
456.1072	129	C30H18NO2S+
456.1089	128	C29H16N2O4+
456.1101	113	C29H16N2O4+
469.1208	260	C27H21N2O4S+
469.1219	213	C27H21N2O4S+
470.1238	114	C30H18N2O4+
470.1255	92	C30H18N2O4+
571.201	999	C31H31N4O5S+
