Mass spectrum: Ramipril; LC-ESI-FT; MS2; CE: 20,40,130%; R=30000; [M+H]+
Name: Ramipril
Name: (2S,3aS,6aS)-1-[(2S)-2-[[(2S)-1-ethoxy-1-oxo-4-phenylbutan-2-yl]amino]propanoyl]-3,3a,4,5,6,6a-hexahydro-2H-cyclopenta[b]pyrrole-2-carboxylic acid
Class: Non-Natural Product; Pharmaceutical drug
Formula: C23H32N2O5
Exact mass: 416.2311
SMILES: CCOC(=O)[C@H](CCC1=CC=CC=C1)N[C@@H](C)C(=O)N2[C@H]3CCC[C@H]3C[C@H]2C(=O)O
InChI: InChI=1S/C23H32N2O5/c1-3-30-23(29)18(13-12-16-8-5-4-6-9-16)24-15(2)21(26)25-19-11-7-10-17(19)14-20(25)22(27)28/h4-6,8-9,15,17-20,24H,3,7,10-14H2,1-2H3,(H,27,28)/t15-,17-,18-,19-,20-/m0/s1
Instrument: Vanquish Horizon UHPLC Thermo Scientific; Orbitrap ID-X Tribrid MS Thermo Scientific
Instrument type: LC-ESI-FT
Ms type: MS2
Ion mode: POSITIVE
Ionization: ESI
Fragmentation mode: HCD
Collision energy: 20,40,130% (stepped)
Resolution: 30000
Column name: Accucore 150 Amide, 2.6um, 2.1x100mm, Thermo Scientific
Retention time: 0.011 min
Base peak: 417.2384
Precursor m/z: 417.2384
Precursor type: [M+H]+
m/z	relative intensity	assigned
56.0495	23	C3H6N+
63.023	3	C5H3+
65.0386	104	C5H5+
67.0543	7	C5H7+
73.0648	10	C4H9O+
74.0239	3	C2H4NO2+
91.0542	507	C7H7+
92.0576	238	C2H8N2O2+
95.0494	3	C6H7O+
102.055	22	C4H8NO2+
110.0964	15	C7H12N+
115.0543	73	C9H7+
116.0576	45	C4H8N2O2+
117.0699	142	C9H9+
118.0733	88	C4H10N2O2+
130.0863	218	C6H12NO2+
134.0965	87	C9H12N+
156.1019	69	C8H14NO2+
160.1121	121	C11H14N+
162.1278	4	C11H16N+
206.1175	6	C12H16NO2+
234.1488	608	C14H20NO2+
236.1553	122	C18H20+
237.1582	2	C10H23NO5+
343.2017	323	C20H27N2O3+
417.2385	999	C23H33N2O5+
