Mass spectrum: KU60648_BTP_M18; LC-ESI-FT; MS2; CE: 25,60,100%; R=17500; [M+H]+
Name: KU60648_BTP_M18
Formula: C33H32N4O4S
Exact mass: 580.2144
Instrument: Dionex Ultimate 3000 UHPLC Thermo Scientific; Q Exactive Focus Orbitrap MS Thermo Scientific
Instrument type: LC-ESI-FT
Ms type: MS2
Ion mode: POSITIVE
Ionization: ESI
Fragmentation mode: HCD
Collision energy: 25,60,100% (stepped)
Resolution: 17500
Column name: Accucore 150 Amide, 2.6um, 2.1x100mm, Thermo Scientific
Retention time: 0.037 min
Base peak: 581.2217
Precursor m/z: 581.2217
Precursor type: [M+H]+
m/z	relative intensity	assigned
68.013	56	C3H2NO+
68.0131	64	C3H2NO+
70.0651	48	C4H8N+
84.0808	62	C5H10N+
94.0287	73	C5H4NO+
97.0761	88	C5H9N2+
97.0762	82	C5H9N2+
112.0757	74	C6H10NO+
112.0758	81	C6H10NO+
112.0995	70	C6H12N2+
112.0996	106	C6H12N2+
125.1073	65	C7H13N2+
127.1229	56	C7H15N2+
127.1231	48	C7H15N2+
245.0415	63	C17H9S+
245.0424	51	C17H9S+
258.0495	77	C18H10S+
258.0502	38	C18H10S+
259.0469	68	C11H7N4O4+
260.0521	217	C17H10NS+
260.0525	155	C17H10NS+
261.0559	87	C12H11N3O2S+
261.0567	50	C12H11N3O2S+
272.0518	90	C18H10NS+
272.0522	121	C18H10NS+
272.0528	73	C18H10NS+
273.0581	56	C15H13O3S+
273.0592	52	C15H13O3S+
273.0603	44	C18H11NS+
274.0412	96	C21H6O+
274.0424	58	C16H8N3S+
274.0433	31	C16H8N3S+
274.0441	51	C16H8N3S+
286.0673	44	C19H12NS+
286.0684	77	C19H12NS+
286.0697	51	C19H12NS+
288.0475	200	C18H10NOS+
288.0478	165	C18H10NOS+
289.0505	68	C19H5N4+
289.0515	55	C13H11N3O3S+
289.0522	43	C13H11N3O3S+
289.0544	31	C16H9N4S+
344.0363	70	C18H8N4O2S+
344.0373	54	C20H10NO3S+
344.0379	48	C20H10NO3S+
344.0394	83	C23H8N2S+
370.0898	25	C23H16NO2S+
371.0861	36	C30H11+
411.079	70	C32H11O+
411.0802	47	C32H11O+
411.0823	42	C32H11O+
427.1222	34	C26H21NO3S+
427.1239	46	C26H21NO3S+
427.1257	72	C26H21NO3S+
428.1158	34	C28H16N2O3+
428.1181	72	C25H20N2O3S+
428.1196	77	C33H16O+
428.1205	42	C33H16O+
428.1221	38	C28H18N3S+
453.1241	52	C33H15N3+
453.1262	66	C33H15N3+
453.1278	69	C33H15N3+
455.1059	810	C26H19N2O4S+
456.1085	226	C29H16N2O4+
456.1091	253	C29H16N2O4+
469.1214	177	C27H21N2O4S+
469.1221	161	C27H21N2O4S+
469.1234	71	C27H21N2O4S+
470.1243	41	C30H18N2O4+
470.1259	73	C30H18N2O4+
470.1275	77	C30H18N2O4+
581.2218	999	C33H33N4O4S+
