Mass spectrum: omeprazole; LC-ESI-FT; MS2; CE: 25,60,100%; R=17500; [M+H]+
Name: omeprazole
Name: 6-methoxy-2-[(4-methoxy-3,5-dimethylpyridin-2-yl)methylsulfinyl]-1H-benzimidazole
Formula: C17H19N3O3S
Exact mass: 345.1147
SMILES: CC1=CN=C(C(=C1OC)C)CS(=O)C2=NC3=C(N2)C=C(C=C3)OC
InChI: InChI=1S/C17H19N3O3S/c1-10-8-18-15(11(2)16(10)23-4)9-24(21)17-19-13-6-5-12(22-3)7-14(13)20-17/h5-8H,9H2,1-4H3,(H,19,20)
Instrument: Dionex Ultimate 3000 UHPLC Thermo Scientific; Q Exactive Focus Orbitrap MS Thermo Scientific
Instrument type: LC-ESI-FT
Ms type: MS2
Ion mode: POSITIVE
Ionization: ESI
Fragmentation mode: HCD
Collision energy: 25,60,100% (stepped)
Resolution: 17500
Column name: Accucore 150 Amide, 2.6um, 2.1x100mm, Thermo Scientific
Retention time: 0.010 min
Base peak: 346.1219
Precursor m/z: 346.122
Precursor type: [M+H]+
m/z	relative intensity	assigned
65.0386	110	C5H5+
67.0542	43	C5H7+
77.0386	73	C6H5+
79.0542	158	C6H7+
91.0542	54	C7H7+
92.0494	45	C6H6N+
93.0573	68	C6H7N+
94.0651	16	C6H8N+
95.0492	147	C6H7O+
105.0448	75	C6H5N2+
106.0652	203	C7H8N+
107.073	75	C7H9N+
108.0808	231	C7H10N+
108.998	47	C5H3NS+
110.0601	56	C6H8NO+
120.0809	204	C8H10N+
121.0887	117	C8H11N+
122.0965	141	C8H12N+
136.0217	105	C7H6NS+
136.0757	709	C8H10NO+
137.0792	60	C3H11N3O3+
149.0709	280	C8H9N2O+
150.0914	135	C9H12NO+
151.099	645	C9H13NO+
152.1025	118	C4H14N3O3+
166.0864	52	C9H12NO2+
168.102	371	C9H14NO2+
169.1054	67	C10H17S+
179.0274	266	C8H7N2OS+
180.0479	390	C9H10NOS+
198.0583	999	C9H12NO2S+
346.1223	30	C17H20N3O3S+
