Mass spectrum: amitriptyline_BTP_M4; LC-ESI-FT; MS2; CE: 25,60,100%; R=17500; [M+H]+
Name: amitriptyline_BTP_M4
Formula: C20H23NO
Exact mass: 293.1780
Instrument: Dionex Ultimate 3000 UHPLC Thermo Scientific; Q Exactive Focus Orbitrap MS Thermo Scientific
Instrument type: LC-ESI-FT
Ms type: MS2
Ion mode: POSITIVE
Ionization: ESI
Fragmentation mode: HCD
Collision energy: 25,60,100% (stepped)
Resolution: 17500
Column name: Accucore 150 Amide, 2.6um, 2.1x100mm, Thermo Scientific
Retention time: 0.020 min
Base peak: 294.1851
Precursor m/z: 294.1852
Precursor type: [M+H]+
m/z	relative intensity	assigned
58.0651	296	C3H8N+
65.0386	222	C5H5+
91.0542	999	C7H7+
105.0699	652	C8H9+
115.0543	204	C9H7+
117.0699	543	C9H9+
155.0854	260	C12H11+
189.0698	285	C15H9+
191.0855	200	C15H11+
233.1326	677	C18H17+
294.1855	293	C20H24NO+
