Mass spectrum: amitriptyline_BTP_M11; LC-ESI-FT; MS2; CE: 25,60,100%; R=17500; [M+H]+
Name: amitriptyline_BTP_M11
Formula: C26H31NO7
Exact mass: 469.2101
Instrument: Dionex Ultimate 3000 UHPLC Thermo Scientific; Q Exactive Focus Orbitrap MS Thermo Scientific
Instrument type: LC-ESI-FT
Ms type: MS2
Ion mode: POSITIVE
Ionization: ESI
Fragmentation mode: HCD
Collision energy: 25,60,100% (stepped)
Resolution: 17500
Column name: Accucore 150 Amide, 2.6um, 2.1x100mm, Thermo Scientific
Retention time: 0.103 min
Base peak: 470.2173
Precursor m/z: 470.2173
Precursor type: [M+H]+
m/z	relative intensity	assigned
58.0651	290	C3H8N+
215.0856	479	C17H11+
231.1169	255	C18H15+
276.1748	999	C20H22N+
294.1856	542	C20H24NO+
