Mass spectrum: KU60648_BTP_M1; LC-ESI-FT; MS2; CE: 25,60,100%; R=17500; [M+H]+
Name: KU60648_BTP_M1
Formula: C33H36N4O6S
Exact mass: 616.2356
Instrument: Dionex Ultimate 3000 UHPLC Thermo Scientific; Q Exactive Focus Orbitrap MS Thermo Scientific
Instrument type: LC-ESI-FT
Ms type: MS2
Ion mode: POSITIVE
Ionization: ESI
Fragmentation mode: HCD
Collision energy: 25,60,100% (stepped)
Resolution: 17500
Column name: Accucore 150 Amide, 2.6um, 2.1x100mm, Thermo Scientific
Retention time: 0.058 min
Base peak: 617.2429
Precursor m/z: 617.2428
Precursor type: [M+H]+
m/z	relative intensity	assigned
56.0495	100	C3H6N+
70.0652	877	C4H8N+
84.0808	999	C5H10N+
85.0842	66	H11N3O2+
86.0964	282	C5H12N+
98.0839	170	C5H10N2+
98.084	184	C5H10N2+
112.0995	88	C6H12N2+
127.123	849	C7H15N2+
128.126	70	CH20O6+
502.1778	193	C33H26O5+
502.1796	173	C28H28N3O4S+
502.1829	102	C30H30O5S+
503.1834	81	C31H25N3O4+
530.1748	455	C29H28N3O5S+
531.1764	138	C32H25N3O5+
531.1778	179	C32H25N3O5+
617.243	653	C33H37N4O6S+
