Mass spectrum: KU60648_BTP_M2; LC-ESI-FT; MS2; CE: 25,60,100%; R=17500; [M+H]+
Name: KU60648_BTP_M2
Name: 8-(1-Amino-dibenzothiophen-4-yl)-2-morpholin-4-yl-chromen-4-one
Name: 8-(1-aminodibenzothiophen-4-yl)-2-morpholin-4-ylchromen-4-one
Formula: C25H20N2O3S
Exact mass: 428.1195
SMILES: O=C1C=C(N2CCOCC2)OC3=C1C=CC=C3C4=C(SC5=CC=CC=C56)C6=C(N[H])C=C4
InChI: InChI=1S/C25H20N2O3S/c26-19-9-8-16(25-23(19)18-4-1-2-7-21(18)31-25)15-5-3-6-17-20(28)14-22(30-24(15)17)27-10-12-29-13-11-27/h1-9,14H,10-13,26H2
Instrument: Dionex Ultimate 3000 UHPLC Thermo Scientific; Q Exactive Focus Orbitrap MS Thermo Scientific
Instrument type: LC-ESI-FT
Ms type: MS2
Ion mode: POSITIVE
Ionization: ESI
Fragmentation mode: HCD
Collision energy: 25,60,100% (stepped)
Resolution: 17500
Column name: Accucore 150 Amide, 2.6um, 2.1x100mm, Thermo Scientific
Retention time: 0.010 min
Base peak: 429.1267
Precursor m/z: 429.1267
Precursor type: [M+H]+
m/z	relative intensity	assigned
57.0699	6	C4H9+
67.0542	10	C5H7+
68.0131	58	C3H2NO+
79.0541	7	C6H7+
91.0541	15	C7H7+
94.0287	12	C5H4NO+
95.0491	7	C6H7O+
112.0757	28	C6H10NO+
119.0856	7	C9H11+
121.0648	14	C8H9O+
137.0961	13	C9H13O+
164.0831	9	C10H12O2+
165.091	38	C10H13O2+
199.045	12	C12H9NS+
202.078	28	C16H10+
216.0812	10	C10H16O3S+
217.0879	12	C16H11N+
217.0885	77	C16H11N+
221.0413	11	C15H9S+
228.0799	14	C17H10N+
234.0497	89	C16H10S+
234.0503	42	C16H10S+
235.0568	22	C16H11S+
240.0801	8	C18H10N+
245.0411	39	C17H9S+
245.0418	103	C17H9S+
246.0373	29	C16H8NS+
246.0384	55	C16H8NS+
258.0501	24	C18H10S+
259.0444	11	C17H9NS+
260.0519	23	C17H10NS+
260.0525	229	C17H10NS+
261.0576	50	C20H7N+
261.058	77	C14H13O3S+
262.0682	250	C17H12NS+
263.0713	64	C17H11O3+
270.0361	9	C18H8NS+
270.0378	34	C18H8NS+
271.0408	11	C21H5N+
271.0423	66	C21H5N+
272.0523	128	C18H10NS+
273.0599	234	C18H11NS+
273.0603	133	C18H11NS+
274.0648	58	C15H14O3S+
274.0658	27	C15H14O3S+
274.0666	165	C15H14O3S+
275.075	9	C18H13NS+
289.0544	62	C18H11NOS+
289.0556	28	C18H11NOS+
290.0635	50	C18H12NOS+
318.0574	14	C19H12NO2S+
429.1266	999	C25H21N2O3S+
