Mass spectrum: sunitinib_BTP_M4; LC-ESI-FT; MS2; CE: 25,60,100%; R=17500; [M+H]+
Name: sunitinib_BTP_M4
Name: N-[2-(ethylamino)-1-hydroxyethyl]-5-[(Z)-(5-fluoro-2-oxo-1H-indol-3-ylidene)methyl]-2,4-dimethyl-1H-pyrrole-3-carboxamide
Formula: C20H23FN4O3
Exact mass: 386.1754
SMILES: CCNCC(O)NC(C1=C(NC(/C=C2C3=C(C=CC(F)=C3)NC/2=O)=C1C)C)=O
InChI: InChI=1S/C20H23FN4O3/c1-4-22-9-17(26)25-20(28)18-10(2)16(23-11(18)3)8-14-13-7-12(21)5-6-15(13)24-19(14)27/h5-8,17,22-23,26H,4,9H2,1-3H3,(H,24,27)(H,25,28)/b14-8-
Instrument: Dionex Ultimate 3000 UHPLC Thermo Scientific; Q Exactive Focus Orbitrap MS Thermo Scientific
Instrument type: LC-ESI-FT
Ms type: MS2
Ion mode: POSITIVE
Ionization: ESI
Fragmentation mode: HCD
Collision energy: 25,60,100% (stepped)
Resolution: 17500
Column name: Accucore 150 Amide, 2.6um, 2.1x100mm, Thermo Scientific
Retention time: 0.068 min
Base peak: 387.1826
Precursor m/z: 387.1827
Precursor type: [M+H]+
m/z	relative intensity	assigned
59.0604	497	C2H7N2+
283.0888	295	C16H12FN2O2+
299.0822	999	C16H12FN2O3+
