Mass spectrum: sunitinib_BTP_M17; LC-ESI-FT; MS2; CE: 25,60,100%; R=17500; [M+H]+
Name: sunitinib_BTP_M17
Formula: C26H31FN4O8
Exact mass: 546.2126
Instrument: Dionex Ultimate 3000 UHPLC Thermo Scientific; Q Exactive Focus Orbitrap MS Thermo Scientific
Instrument type: LC-ESI-FT
Ms type: MS2
Ion mode: POSITIVE
Ionization: ESI
Fragmentation mode: HCD
Collision energy: 25,60,100% (stepped)
Resolution: 17500
Column name: Accucore 150 Amide, 2.6um, 2.1x100mm, Thermo Scientific
Retention time: 0.110 min
Base peak: 547.2197
Precursor m/z: 547.2199
Precursor type: [M+H]+
m/z	relative intensity	assigned
183.0608	83	C13H8F+
185.0637	130	C3H11N3O6+
185.0646	102	C3H11N3O6+
186.0709	75	C12H9FN+
189.0459	110	C10H6FN2O+
198.0716	70	C13H9FN+
209.0633	138	C14H8FN+
210.0714	127	C14H9FN+
214.0659	92	C13H9FNO+
214.0664	102	C13H9FNO+
227.0973	80	C14H12FN2+
237.0817	76	C15H10FN2+
237.083	95	C15H10FN2+
238.0662	164	C15H9FNO+
239.0651	78	C10H11N2O5+
240.0661	89	C14H10NO3+
240.0684	64	C17H8N2+
255.0926	109	C15H12FN2O+
283.0876	999	C16H12FN2O2+
284.0911	167	C11H13FN4O4+
325.0985	88	C18H14FN2O3+
459.1195	991	C22H20FN2O8+
460.1209	91	C26H19FNO6+
502.162	109	C24H25FN3O8+
547.2195	85	C26H32FN4O8+
