Mass spectrum: acetaminophen_BTP_M4; LC-ESI-FT; MS2; CE: 25,60,100%; R=17500; [M+H]+
Name: acetaminophen_BTP_M4
Name: Acetaminophen sulfate
Name: (4-acetamidophenyl) hydrogen sulfate
Formula: C8H9NO5S
Exact mass: 231.0201
SMILES: CC(=O)NC1=CC=C(C=C1)OS(=O)(=O)O
InChI: InChI=1S/C8H9NO5S/c1-6(10)9-7-2-4-8(5-3-7)14-15(11,12)13/h2-5H,1H3,(H,9,10)(H,11,12,13)
Instrument: Dionex Ultimate 3000 UHPLC Thermo Scientific; Q Exactive Focus Orbitrap MS Thermo Scientific
Instrument type: LC-ESI-FT
Ms type: MS2
Ion mode: POSITIVE
Ionization: ESI
Fragmentation mode: HCD
Collision energy: 25,60,100% (stepped)
Resolution: 17500
Column name: Accucore 150 Amide, 2.6um, 2.1x100mm, Thermo Scientific
Retention time: 0.010 min
Base peak: 232.0273
Precursor m/z: 232.0274
Precursor type: [M+H]+
m/z	relative intensity	assigned
43.0178	527	C2H3O+
53.0386	238	C4H5+
65.0385	572	C5H5+
80.0494	565	C5H6N+
108.0445	200	C6H6NO+
110.06	686	C6H8NO+
111.0442	147	C6H7O2+
152.0706	999	C8H10NO2+
232.0276	388	C8H10NO5S+
