Mass spectrum: Paracetamol; LC-ESI-FT; MS2; CE: 20,40,130%; R=30000; [M+H]+
Name: Paracetamol
Name: Acetaminophen
Name: N-(4-hydroxyphenyl)acetamide
Class: Non-Natural Product; Pharmaceutical drug
Formula: C8H9NO2
Exact mass: 151.0633
SMILES: CC(=O)NC1=CC=C(C=C1)O
InChI: InChI=1S/C8H9NO2/c1-6(10)9-7-2-4-8(11)5-3-7/h2-5,11H,1H3,(H,9,10)
Instrument: Vanquish Horizon UHPLC Thermo Scientific; Orbitrap ID-X Tribrid MS Thermo Scientific
Instrument type: LC-ESI-FT
Ms type: MS2
Ion mode: POSITIVE
Ionization: ESI
Fragmentation mode: HCD
Collision energy: 20,40,130% (stepped)
Resolution: 30000
Column name: Accucore 150 Amide, 2.6um, 2.1x100mm, Thermo Scientific
Retention time: 0.009 min
Base peak: 152.0706
Precursor m/z: 152.0706
Precursor type: [M+H]+
m/z	relative intensity	assigned
42.0338	14	C2H4N+
43.0178	271	C2H3O+
53.0386	14	C4H5+
55.0179	15	C3H3O+
65.0386	111	C5H5+
66.0464	12	C5H6+
79.0541	9	C6H7+
80.0495	25	C5H6N+
82.0652	30	C5H8N+
92.0495	74	C6H6N+
93.0335	42	C6H5O+
110.06	999	C6H8NO+
111.0441	95	C6H7O2+
134.0601	18	C8H8NO+
152.0707	583	C8H10NO2+
