Mass spectrum: atorvastatin_BTP_M1; LC-ESI-FT; MS2; CE: 25,60,100%; R=17500; [M+H]+
Name: atorvastatin_BTP_M1
Name: Atorvastatin IMpurity H
Name: 5-(4-fluorophenyl)-1-[2-(4-hydroxy-6-oxooxan-2-yl)ethyl]-N,4-diphenyl-2-propan-2-ylpyrrole-3-carboxamide
Formula: C33H33FN2O4
Exact mass: 540.2424
SMILES: CC(C)C1=C(C(=C(N1CCC2CC(CC(=O)O2)O)C3=CC=C(C=C3)F)C4=CC=CC=C4)C(=O)NC5=CC=CC=C5
InChI: InChI=1S/C33H33FN2O4/c1-21(2)31-30(33(39)35-25-11-7-4-8-12-25)29(22-9-5-3-6-10-22)32(23-13-15-24(34)16-14-23)36(31)18-17-27-19-26(37)20-28(38)40-27/h3-16,21,26-27,37H,17-20H2,1-2H3,(H,35,39)
Instrument: Dionex Ultimate 3000 UHPLC Thermo Scientific; Q Exactive Focus Orbitrap MS Thermo Scientific
Instrument type: LC-ESI-FT
Ms type: MS2
Ion mode: POSITIVE
Ionization: ESI
Fragmentation mode: HCD
Collision energy: 25,60,100% (stepped)
Resolution: 17500
Column name: Accucore 150 Amide, 2.6um, 2.1x100mm, Thermo Scientific
Retention time: 0.007 min
Base peak: 541.2498
Precursor m/z: 541.2497
Precursor type: [M+H]+
m/z	relative intensity	assigned
95.0492	79	C6H7O+
115.0543	135	C9H7+
133.0449	119	C9H6F+
207.0606	81	C15H8F+
220.0682	97	C16H9F+
235.0788	91	C16H10FN+
238.1026	115	C16H13FN+
320.1444	215	C21H19FNO+
338.155	663	C21H21FNO2+
339.1584	144	C21H23O4+
380.202	999	C24H27FNO2+
381.2053	283	C24H29O4+
406.1813	195	C25H25FNO3+
499.2388	259	C31H32FN2O3+
