Mass spectrum: sunitinib_BTP_M13; LC-ESI-FT; MS2; CE: 25,60,100%; R=17500; [M+H]+
Name: sunitinib_BTP_M13
Formula: C28H35FN4O9
Exact mass: 590.2388
SMILES: O=C1NC(C=C(OC(C(C(OC2O)C(O)=O)O)C2O)C(F)=C3)=C3/C1=C/C4=C(C)C(C(NCCN(CC)CC)=O)=C(C)N4
InChI: InChI=1S/C28H35FN4O9/c1-5-33(6-2)8-7-30-26(37)20-12(3)17(31-13(20)4)10-15-14-9-16(29)19(11-18(14)32-25(15)36)41-23-21(34)24(27(38)39)42-28(40)22(23)35/h9-11,21-24,28,31,34-35,40H,5-8H2,1-4H3,(H,30,37)(H,32,36)(H,38,39)/b15-10-
Instrument: Dionex Ultimate 3000 UHPLC Thermo Scientific; Q Exactive Focus Orbitrap MS Thermo Scientific
Instrument type: LC-ESI-FT
Ms type: MS2
Ion mode: POSITIVE
Ionization: ESI
Fragmentation mode: HCD
Collision energy: 25,60,100% (stepped)
Resolution: 17500
Column name: Accucore 150 Amide, 2.6um, 2.1x100mm, Thermo Scientific
Retention time: 0.118 min
Base peak: 591.246
Precursor m/z: 591.2461
Precursor type: [M+H]+
m/z	relative intensity	assigned
100.1119	34	CH13FN4+
146.0602	27	C9H8NO+
148.0392	35	C3H5FN4O2+
180.0809	56	C13H10N+
183.068	34	C12H9NO+
184.0759	38	C12H10NO+
187.0504	79	C10H7N2O2+
190.0655	29	C14H8N+
191.0737	32	C11H10FNO+
198.0915	44	C13H12NO+
198.0919	53	C10H13FNO2+
207.0677	36	C9H8FN4O+
207.0916	22	C14H11N2+
208.0756	117	C14H10NO+
209.0808	33	C11H13O4+
210.076	26	C5H11FN4O4+
212.0701	66	C8H9FN4O2+
212.0707	53	C13H10NO2+
216.0657	27	C12H10NO3+
225.102	52	C14H13N2O+
225.1023	49	C14H13N2O+
226.0861	26	C9H11FN4O2+
226.087	46	C14H12NO2+
235.0865	55	C15H11N2O+
236.0707	86	C15H10NO2+
236.0937	43	C15H12N2O+
237.0654	27	C14H9N2O2+
237.0675	55	C2H13N4O9+
237.0689	29	C14H8FN3+
238.0723	32	C8H13FNO6+
238.0733	55	C8H13FNO6+
253.0969	90	C15H13N2O2+
280.1078	29	C16H14N3O2+
280.1086	40	C16H14N3O2+
281.0919	999	C16H13N2O3+
282.0952	165	C10H18O9+
324.1342	190	C18H18N3O3+
325.1373	45	C24H18F+
325.1382	37	C24H18F+
325.1398	61	C24H18F+
397.223	59	C18H34FO8+
397.2244	29	C19H30FN4O4+
457.124	344	C22H21N2O9+
458.1263	67	C26H19FN2O5+
458.1273	142	C26H19FN2O5+
500.1659	163	C24H26N3O9+
500.1668	123	C24H26N3O9+
501.1654	55	C25H26FN2O8+
501.1686	64	C28H24FN3O5+
501.1709	39	C28H24FN3O5+
501.1753	26	C24H27N3O9+
