Mass spectrum: KU60648_BTP_M15; LC-ESI-FT; MS2; CE: 25,60,100%; R=17500; [M+H]+
Name: KU60648_BTP_M15
Formula: C31H32N4O5S
Exact mass: 572.2093
SMILES: OCCN(C1=CC(C2=C(C(C3=C4SC5=CC=CC=C5C4=C(C=C3)N([H])C(CN6CCNCC6)=O)=CC=C2)O1)=O)CCO
InChI: InChI=1S/C31H32N4O5S/c36-16-14-35(15-17-37)28-18-25(38)22-6-3-5-20(30(22)40-28)21-8-9-24(33-27(39)19-34-12-10-32-11-13-34)29-23-4-1-2-7-26(23)41-31(21)29/h1-9,18,32,36-37H,10-17,19H2,(H,33,39)
Instrument: Dionex Ultimate 3000 UHPLC Thermo Scientific; Q Exactive Focus Orbitrap MS Thermo Scientific
Instrument type: LC-ESI-FT
Ms type: MS2
Ion mode: POSITIVE
Ionization: ESI
Fragmentation mode: HCD
Collision energy: 25,60,100% (stepped)
Resolution: 17500
Column name: Accucore 150 Amide, 2.6um, 2.1x100mm, Thermo Scientific
Retention time: 0.090 min
Base peak: 573.2166
Precursor m/z: 573.2166
Precursor type: [M+H]+
m/z	relative intensity	assigned
56.0495	262	C3H6N+
70.0651	389	C4H8N+
71.0729	22	C4H9N+
84.0682	84	C4H8N2+
86.0964	35	C5H12N+
97.0761	47	C5H9N2+
99.0917	596	C5H11N2+
100.0951	37	H12N4O2+
104.1069	30	C5H14NO+
112.0995	53	C6H12N2+
260.051	68	C14H12O3S+
260.0528	31	C17H10NS+
262.0683	30	C17H12NS+
262.0699	42	C13H12NO5+
262.0711	63	C13H12NO5+
262.0728	35	C8H14N4O4S+
272.0516	29	C18H10NS+
273.0596	35	C18H11NS+
273.0606	44	C18H11NS+
274.0675	34	C18H12NS+
318.0576	29	C17H10N4OS+
371.0842	29	C30H11+
371.087	51	C30H11+
385.1008	42	C23H17N2O2S+
397.1005	61	C24H17N2O2S+
447.1335	53	C28H19N2O4+
447.1366	52	C31H17N3O+
447.1387	34	C25H23N2O4S+
573.2167	999	C31H33N4O5S+
