Mass spectrum: sunitinib_BTP_M14; LC-ESI-FT; MS2; CE: 25,60,100%; R=17500; [M+H]+
Name: sunitinib_BTP_M14
Formula: C20H21FN4O3
Exact mass: 384.1598
SMILES: CCNC(C/N=C(O)/C1=C(C)NC(/C=C2C3=C(NC/2=O)C=CC(F)=C3)=C1C)=O
InChI: InChI=1S/C20H21FN4O3/c1-4-22-17(26)9-23-20(28)18-10(2)16(24-11(18)3)8-14-13-7-12(21)5-6-15(13)25-19(14)27/h5-8,24H,4,9H2,1-3H3,(H,22,26)(H,23,28)(H,25,27)/b14-8-
Instrument: Dionex Ultimate 3000 UHPLC Thermo Scientific; Q Exactive Focus Orbitrap MS Thermo Scientific
Instrument type: LC-ESI-FT
Ms type: MS2
Ion mode: POSITIVE
Ionization: ESI
Fragmentation mode: HCD
Collision energy: 25,60,100% (stepped)
Resolution: 17500
Column name: Accucore 150 Amide, 2.6um, 2.1x100mm, Thermo Scientific
Retention time: 0.012 min
Base peak: 385.1669
Precursor m/z: 385.167
Precursor type: [M+H]+
m/z	relative intensity	assigned
55.0543	35	C4H7+
59.0492	60	C3H7O+
65.0385	43	FH4N3+
65.0386	50	C5H5+
67.0541	46	FH6N3+
75.0227	43	CH2FN3+
79.0539	36	CH6FN3+
81.0696	30	CH8FN3+
91.054	37	C2H6FN3+
95.0489	37	CH6FN3O+
95.0853	26	C2H10FN3+
133.0448	58	C9H6F+
146.0403	45	C9H5FN+
148.0557	49	C9H7FN+
150.0349	45	C8H5FNO+
157.0448	50	C11H6F+
157.045	52	C11H6F+
158.04	43	C10H5FN+
163.0544	44	C13H7+
164.049	50	C7H5FN4+
164.05	46	C12H6N+
170.0528	37	C12H7F+
172.056	58	C11H7FN+
181.0449	42	C13H6F+
183.0603	55	C13H8F+
183.0607	73	C13H8F+
184.055	69	C12H7FN+
184.0555	58	C12H7FN+
185.0632	84	C12H8FN+
185.0637	106	C12H8FN+
186.0705	53	C12H9FN+
186.0715	64	C12H9FN+
186.0722	67	C12H9FN+
189.0456	73	C10H6FN2O+
189.046	60	C10H6FN2O+
190.0653	48	C14H8N+
190.0661	49	C11H9FNO+
195.0478	42	C13H6FN+
196.0548	56	C13H7FN+
196.0555	40	C13H7FN+
198.0713	48	C13H9FN+
198.072	50	C13H9FN+
200.0867	52	C13H11FN+
208.0555	63	C14H7FN+
208.056	59	C14H7FN+
209.063	75	C14H8FN+
209.0634	122	C14H8FN+
209.0639	85	C14H8FN+
210.0705	68	C14H9FN+
210.0713	122	C14H9FN+
210.0717	133	C14H9FN+
211.0665	35	C13H8FN2+
214.0661	66	C13H9FNO+
214.0666	54	C13H9FNO+
227.0978	52	C14H12FN2+
236.0742	45	C15H9FN2+
237.0814	50	C15H10FN2+
237.0821	62	C15H10FN2+
237.0827	61	C15H10FN2+
238.0661	110	C15H9FNO+
238.0666	91	C15H9FNO+
239.0611	46	C14H8FN2O+
240.0686	41	C17H8N2+
240.0692	56	C14H9FN2O+
253.0769	51	C15H10FN2O+
255.0925	49	C15H12FN2O+
283.0877	999	C16H12FN2O2+
284.0905	175	C14H12N4O3+
284.091	185	C14H12N4O3+
