Mass spectrum: KU60648_BTP_M22; LC-ESI-FT; MS2; CE: 25,60,100%; R=17500; [M+H]+
Name: KU60648_BTP_M22
Formula: C31H28N4O4S
Exact mass: 552.1831
Instrument: Dionex Ultimate 3000 UHPLC Thermo Scientific; Q Exactive Focus Orbitrap MS Thermo Scientific
Instrument type: LC-ESI-FT
Ms type: MS2
Ion mode: POSITIVE
Ionization: ESI
Fragmentation mode: HCD
Collision energy: 25,60,100% (stepped)
Resolution: 17500
Column name: Accucore 150 Amide, 2.6um, 2.1x100mm, Thermo Scientific
Retention time: 0.075 min
Base peak: 553.1903
Precursor m/z: 553.1904
Precursor type: [M+H]+
m/z	relative intensity	assigned
56.0494	266	C3H6N+
70.0652	288	C4H8N+
99.0916	393	C5H11N2+
427.1104	208	C31H13N3+
455.1028	247	C29H15N2O4+
455.1046	257	C29H15N2O4+
553.1908	999	C31H29N4O4S+
