Mass spectrum: KU60648_BTP_M11; LC-ESI-FT; MS2; CE: 25,60,100%; R=17500; [M+H]+
Name: KU60648_BTP_M11
Formula: C20H33N3O13
Exact mass: 523.2013
SMILES: CCN1CCN(C2OC(C(NCC(OC3OC(C(O)=O)C(O)C(O)C3O)=O)=O)C(O)C(O)C2O)CC1
InChI: InChI=1S/C20H33N3O13/c1-2-22-3-5-23(6-4-22)18-13(29)9(25)11(27)15(35-18)17(31)21-7-8(24)34-20-14(30)10(26)12(28)16(36-20)19(32)33/h9-16,18,20,25-30H,2-7H2,1H3,(H,21,31)(H,32,33)
Instrument: Dionex Ultimate 3000 UHPLC Thermo Scientific; Q Exactive Focus Orbitrap MS Thermo Scientific
Instrument type: LC-ESI-FT
Ms type: MS2
Ion mode: POSITIVE
Ionization: ESI
Fragmentation mode: HCD
Collision energy: 25,60,100% (stepped)
Resolution: 17500
Column name: Accucore 150 Amide, 2.6um, 2.1x100mm, Thermo Scientific
Retention time: 0.122 min
Base peak: 524.2085
Precursor m/z: 524.2086
Precursor type: [M+Na]+
m/z	relative intensity	assigned
56.0494	102	C3H6N+
70.0651	972	C4H8N+
84.0808	999	C5H10N+
98.0837	181	C5H10N2+
127.123	958	C7H15N2+
370.1577	650	C13H26N2O10+
371.159	149	C20H23N2O5+
371.1611	159	C20H23N2O5+
