Mass spectrum: Lansoprazole; LC-ESI-FT; MS2; CE: 20,40,130%; R=30000; [M+H]+
Name: Lansoprazole
Name: 2-[[3-methyl-4-(2,2,2-trifluoroethoxy)pyridin-2-yl]methylsulfinyl]-1H-benzimidazole
Class: Non-Natural Product; Pharmaceutical drug
Formula: C16H14F3N3O2S
Exact mass: 369.0759
SMILES: CC1=C(C=CN=C1CS(=O)C2=NC3=CC=CC=C3N2)OCC(F)(F)F
InChI: InChI=1S/C16H14F3N3O2S/c1-10-13(20-7-6-14(10)24-9-16(17,18)19)8-25(23)15-21-11-4-2-3-5-12(11)22-15/h2-7H,8-9H2,1H3,(H,21,22)
Instrument: Vanquish Horizon UHPLC Thermo Scientific; Orbitrap ID-X Tribrid MS Thermo Scientific
Instrument type: LC-ESI-FT
Ms type: MS2
Ion mode: POSITIVE
Ionization: ESI
Fragmentation mode: HCD
Collision energy: 20,40,130% (stepped)
Resolution: 30000
Column name: Accucore 150 Amide, 2.6um, 2.1x100mm, Thermo Scientific
Retention time: 0.008 min
Base peak: 370.0831
Precursor m/z: 370.0832
Precursor type: [M+H]+
m/z	relative intensity	assigned
52.0307	7	C4H4+
53.0021	14	C3HO+
53.0385	15	C4H5+
63.0229	10	C5H3+
65.0385	106	C5H5+
66.0463	26	C5H6+
67.0416	10	C4H5N+
67.0542	18	C5H7+
68.9793	7	C3HS+
69.9871	20	C3H2S+
77.0385	19	C6H5+
78.0338	14	C5H4N+
79.0416	28	C5H5N+
79.0542	51	C6H7+
80.0494	66	C5H6N+
91.0416	9	C6H5N+
92.0494	91	C6H6N+
93.0529	8	CH7N3O2+
93.0573	26	C6H7N+
94.0651	17	C6H8N+
94.995	16	C5H3S+
95.0491	44	C6H7O+
96.0027	40	C5H4S+
96.0444	31	C5H6NO+
97.0107	18	C5H5S+
97.9986	14	C2N3O2+
99.0064	5	C2HN3O2+
105.0447	13	C6H5N2+
106.065	251	C7H8N+
107.0687	24	C2H9N3O2+
107.0729	136	C7H9N+
108.0763	14	C2H10N3O2+
108.0769	14	C2H10N3O2+
108.0807	114	C7H10N+
109.0841	9	C2H11N3O2+
110.0059	15	C5H4NS+
110.06	22	C6H8NO+
118.0526	9	C7H6N2+
118.0652	7	C8H8N+
119.0603	999	C7H7N2+
120.0445	11	C7H6NO+
120.0578	7	F2H8N3O2+
121.067	18	C3H11N3S+
122.0059	48	C6H4NS+
122.06	11	C7H8NO+
123.0137	51	C6H5NS+
136.0757	333	C8H10NO+
137.0791	35	CH13F2N3S+
138.0819	7	C4H14N2OS+
149.0168	54	C7H5N2S+
151.0087	41	C7H5NOS+
151.0325	7	C7H7N2S+
152.0166	16	C7H6NOS+
153.0044	11	C7H4FNS+
185.0647	10	C9H9F2NO+
190.0472	9	C8H7F3NO+
204.0631	73	C9H9F3NO+
205.0708	313	C9H10F3NO+
206.0743	31	C10H12N3S+
207.0769	14	C5H14F3N2OS+
220.0581	154	C9H9F3NO2+
221.0616	15	C10H11N3OS+
222.0633	7	C8H12F2N2OS+
222.0739	41	C9H11F3NO2+
223.0772	4	C10H13N3OS+
234.0197	200	C9H7F3NOS+
235.0231	14	C15H3F2N+
235.026	37	C12H7F2NS+
236.0154	76	C14H6NOS+
236.0261	6	C10H4F2N3O2+
237.0218	15	C14H4FNO2+
252.0302	871	C9H9F3NO2S+
253.0334	90	C15H5F2NO+
254.0261	300	C14H8NO2S+
255.0294	35	C15H4F3N+
