Mass spectrum: sunitinib_BTP_M11; LC-ESI-FT; MS2; CE: 25,60,100%; R=17500; [M+H]+
Name: sunitinib_BTP_M11
Name: 2-[[5-[(Z)-(5-fluoro-2-oxo-1H-indol-3-ylidene)methyl]-2,4-dimethyl-1H-pyrrole-3-carbonyl]amino]acetic acid
Formula: C18H16FN3O4
Exact mass: 357.1125
SMILES: OC(CNC(C1=C(C)NC(/C=C2C3=C(NC/2=O)C=CC(F)=C3)=C1C)=O)=O
InChI: InChI=1S/C18H16FN3O4/c1-8-14(21-9(2)16(8)18(26)20-7-15(23)24)6-12-11-5-10(19)3-4-13(11)22-17(12)25/h3-6,21H,7H2,1-2H3,(H,20,26)(H,22,25)(H,23,24)/b12-6-
Instrument: Dionex Ultimate 3000 UHPLC Thermo Scientific; Q Exactive Focus Orbitrap MS Thermo Scientific
Instrument type: LC-ESI-FT
Ms type: MS2
Ion mode: POSITIVE
Ionization: ESI
Fragmentation mode: HCD
Collision energy: 25,60,100% (stepped)
Resolution: 17500
Column name: Accucore 150 Amide, 2.6um, 2.1x100mm, Thermo Scientific
Retention time: 0.020 min
Base peak: 358.1196
Precursor m/z: 358.1198
Precursor type: [M+H]+
m/z	relative intensity	assigned
60.0556	107	CH6N3+
183.0604	107	C13H8F+
184.0557	88	C12H7FN+
185.0633	121	C12H8FN+
185.0641	191	C12H8FN+
189.0457	110	C10H6FN2O+
209.0631	123	C14H8FN+
209.0636	138	C14H8FN+
210.071	109	C14H9FN+
257.1077	103	C18H13N2+
282.0804	96	C16H11FN2O2+
283.0876	999	C16H12FN2O2+
284.091	173	C16H14NO4+
