Mass spectrum: sunitinib_BTP_M7; LC-ESI-FT; MS2; CE: 25,60,100%; R=17500; [M+H]+
Name: sunitinib_BTP_M7
Formula: C28H35FN4O9
Exact mass: 590.2388
Instrument: Dionex Ultimate 3000 UHPLC Thermo Scientific; Q Exactive Focus Orbitrap MS Thermo Scientific
Instrument type: LC-ESI-FT
Ms type: MS2
Ion mode: POSITIVE
Ionization: ESI
Fragmentation mode: HCD
Collision energy: 25,60,100% (stepped)
Resolution: 17500
Column name: Accucore 150 Amide, 2.6um, 2.1x100mm, Thermo Scientific
Retention time: 0.108 min
Base peak: 591.246
Precursor m/z: 591.2461
Precursor type: [M+H]+
m/z	relative intensity	assigned
59.0604	10	C2H7N2+
60.0557	12	CH6N3+
100.1119	28	CH13FN4+
171.0607	34	C12H8F+
178.0651	30	C13H8N+
184.0545	171	H12N2O9+
184.0555	73	C12H7FN+
184.056	34	C12H7FN+
195.0909	89	C13H11N2+
195.0919	50	C13H11N2+
198.0715	76	C13H9FN+
201.0582	49	C12H8FNO+
202.0653	59	C12H9FNO+
202.066	60	C12H9FNO+
202.0667	46	C12H9FNO+
205.0407	67	C10H6FN2O2+
205.0409	89	C10H6FN2O2+
208.0552	90	C14H7FN+
208.0556	77	C14H7FN+
208.0564	20	C14H7FN+
216.0807	13	C16H10N+
216.0818	65	C13H11FNO+
216.0824	51	C4H14N3O7+
223.0858	38	C8H14FNO5+
225.0818	35	C14H10FN2+
226.0663	90	C14H9FNO+
230.0613	55	C4H12N3O8+
230.0624	101	C4H12N3O8+
243.0927	50	C14H12FN2O+
243.0931	43	C14H12FN2O+
244.0754	35	C12H9FN4O+
253.0768	62	C15H10FN2O+
253.0777	24	C6H13N4O7+
254.0607	166	C15H9FNO2+
254.0613	28	C15H9FNO2+
255.0588	50	C7H13NO9+
256.0633	39	C17H8N2O+
256.0642	79	C14H9FN2O2+
271.0867	19	C18H11N2O+
271.0873	89	C15H12FN2O2+
298.0976	40	C21H14O2+
298.0986	60	C21H14O2+
298.1002	53	C21H14O2+
299.0825	999	C16H12FN2O3+
300.0858	171	C14H12N4O4+
342.1246	246	C18H17FN3O3+
343.1278	87	C12H22FNO9+
343.1285	25	C18H19N2O5+
415.2137	75	C24H30FNO4+
415.2165	18	C24H30FNO4+
416.218	41	C22H30N3O5+
475.1149	284	C22H20FN2O9+
476.1157	15	C26H19FNO7+
518.1573	124	C24H25FN3O9+
519.1581	19	C28H24FN2O7+
519.162	65	C27H25N3O8+
591.246	265	C28H36FN4O9+
