Mass spectrum: amitriptyline_BTP_M10; LC-ESI-FT; MS2; CE: 25,60,100%; R=17500; [M+H]+
Name: amitriptyline_BTP_M10
Formula: C25H29NO7
Exact mass: 455.1944
Instrument: Dionex Ultimate 3000 UHPLC Thermo Scientific; Q Exactive Focus Orbitrap MS Thermo Scientific
Instrument type: LC-ESI-FT
Ms type: MS2
Ion mode: POSITIVE
Ionization: ESI
Fragmentation mode: HCD
Collision energy: 25,60,100% (stepped)
Resolution: 17500
Column name: Accucore 150 Amide, 2.6um, 2.1x100mm, Thermo Scientific
Retention time: 0.105 min
Base peak: 456.2017
Precursor m/z: 456.2017
Precursor type: [M+H]+
m/z	relative intensity	assigned
215.0856	680	C17H11+
262.1591	999	C19H20N+
