Mass spectrum: acetaminophen_BTP_M1; LC-ESI-FT; MS2; CE: 25,60,100%; R=17500; [M+H]+
Name: acetaminophen_BTP_M1
Name: 3-Hydroxyacetaminophen
Name: N-(3,4-dihydroxyphenyl)acetamide
Formula: C8H9NO3
Exact mass: 167.0582
SMILES: CC(=O)NC1=CC(=C(C=C1)O)O
InChI: InChI=1S/C8H9NO3/c1-5(10)9-6-2-3-7(11)8(12)4-6/h2-4,11-12H,1H3,(H,9,10)
Instrument: Dionex Ultimate 3000 UHPLC Thermo Scientific; Q Exactive Focus Orbitrap MS Thermo Scientific
Instrument type: LC-ESI-FT
Ms type: MS2
Ion mode: POSITIVE
Ionization: ESI
Fragmentation mode: HCD
Collision energy: 25,60,100% (stepped)
Resolution: 17500
Column name: Accucore 150 Amide, 2.6um, 2.1x100mm, Thermo Scientific
Retention time: 0.008 min
Base peak: 168.0655
Precursor m/z: 168.0655
Precursor type: [M+H]+
m/z	relative intensity	assigned
43.0179	257	C2H3O+
80.0494	248	C5H6N+
81.0699	263	C6H9+
108.0444	999	C6H6NO+
126.0549	530	C6H8NO2+
168.0656	614	C8H10NO3+
