Mass spectrum: KU60648_BTP_M16; LC-ESI-FT; MS2; CE: 25,60,100%; R=17500; [M+H]+
Name: KU60648_BTP_M16
Formula: C33H34N4O5S
Exact mass: 598.2250
Instrument: Dionex Ultimate 3000 UHPLC Thermo Scientific; Q Exactive Focus Orbitrap MS Thermo Scientific
Instrument type: LC-ESI-FT
Ms type: MS2
Ion mode: POSITIVE
Ionization: ESI
Fragmentation mode: HCD
Collision energy: 25,60,100% (stepped)
Resolution: 17500
Column name: Accucore 150 Amide, 2.6um, 2.1x100mm, Thermo Scientific
Retention time: 0.085 min
Base peak: 599.2323
Precursor m/z: 599.2323
Precursor type: [M+H]+
m/z	relative intensity	assigned
56.0495	140	C3H6N+
70.0651	856	C4H8N+
84.0808	991	C5H10N+
85.076	180	C4H9N2+
97.0761	361	C5H9N2+
98.0839	172	C5H10N2+
112.0996	259	C6H12N2+
125.1072	135	C7H13N2+
127.123	999	C7H15N2+
455.1022	295	C29H15N2O4+
455.1046	201	C32H13N3O+
455.1066	242	C26H19N2O4S+
571.2013	926	C31H31N4O5S+
599.232	821	C33H35N4O5S+
