Mass spectrum: sunitinib_BTP_M1; LC-ESI-FT; MS2; CE: 25,60,100%; R=17500; [M+H]+
Name: sunitinib_BTP_M1
Name: N-[2-(ethylamino)ethyl]-5-[(5-fluoro-2-oxo-1H-indol-3-ylidene)methyl]-2,4-dimethyl-1H-pyrrole-3-carboxamide
Formula: C20H23FN4O2
Exact mass: 370.1805
SMILES: CCNCCNC(=O)C1=C(NC(=C1C)C=C2C3=C(C=CC(=C3)F)NC2=O)C
InChI: InChI=1S/C20H23FN4O2/c1-4-22-7-8-23-20(27)18-11(2)17(24-12(18)3)10-15-14-9-13(21)5-6-16(14)25-19(15)26/h5-6,9-10,22,24H,4,7-8H2,1-3H3,(H,23,27)(H,25,26)
Instrument: Dionex Ultimate 3000 UHPLC Thermo Scientific; Q Exactive Focus Orbitrap MS Thermo Scientific
Instrument type: LC-ESI-FT
Ms type: MS2
Ion mode: POSITIVE
Ionization: ESI
Fragmentation mode: HCD
Collision energy: 25,60,100% (stepped)
Resolution: 17500
Column name: Accucore 150 Amide, 2.6um, 2.1x100mm, Thermo Scientific
Retention time: 0.053 min
Base peak: 371.1876
Precursor m/z: 371.1878
Precursor type: [M+H]+
m/z	relative intensity	assigned
65.0385	63	C5H5+
133.0446	35	C9H6F+
133.0449	52	C9H6F+
146.04	106	C9H5FN+
148.0556	18	C9H7FN+
157.0444	79	C11H6F+
157.045	64	C11H6F+
158.0399	19	C10H5FN+
164.05	18	C12H6N+
170.0526	78	C12H7F+
172.0553	20	C11H7FN+
181.045	17	C13H6F+
183.0601	62	C13H8F+
183.0607	84	C13H8F+
184.055	51	C12H7FN+
184.0555	101	C12H7FN+
185.0636	135	C12H8FN+
186.0707	24	C12H9FN+
186.0717	37	C12H9FN+
187.056	19	C12H8FO+
189.0454	68	C10H6FN2O+
189.0458	67	C10H6FN2O+
190.0659	47	C11H9FNO+
196.0549	22	C13H7FN+
198.0717	9	C13H9FN+
200.087	89	C13H11FN+
208.0554	64	C14H7FN+
208.0562	74	C14H7FN+
209.0631	166	C14H8FN+
209.0634	116	C14H8FN+
210.0716	178	C14H9FN+
210.0722	59	C14H9FN+
214.0656	98	C16H8N+
214.0661	64	C13H9FNO+
227.0976	54	C14H12FN2+
237.0814	67	C15H10FN2+
237.0821	68	C15H10FN2+
237.0826	66	C15H10FN2+
238.0661	145	C15H9FNO+
238.0665	77	C15H9FNO+
240.0687	64	C14H9FN2O+
240.0695	17	C14H9FN2O+
255.0932	15	C15H12FN2O+
283.0876	999	C16H12FN2O2+
326.1288	138	C18H17FN3O2+
326.1299	85	C18H17FN3O2+
