Mass spectrum: lansoprazole_BTP_M4; LC-ESI-FT; MS2; CE: 25,60,100%; R=17500; [M+H]+
Name: lansoprazole_BTP_M4
Formula: C10H12F3NO3S
Exact mass: 283.0490
SMILES: CC1=C(OCC(F)(F)F)C=CN=C1CS(CO)=O
InChI: InChI=1S/C10H12F3NO3S/c1-7-8(4-18(16)6-15)14-3-2-9(7)17-5-10(11,12)13/h2-3,15H,4-6H2,1H3
Instrument: Dionex Ultimate 3000 UHPLC Thermo Scientific; Q Exactive Focus Orbitrap MS Thermo Scientific
Instrument type: LC-ESI-FT
Ms type: MS2
Ion mode: POSITIVE
Ionization: ESI
Fragmentation mode: HCD
Collision energy: 25,60,100% (stepped)
Resolution: 17500
Column name: Accucore 150 Amide, 2.6um, 2.1x100mm, Thermo Scientific
Retention time: 0.008 min
Base peak: 284.0561
Precursor m/z: 284.0563
Precursor type: [M+H]+
m/z	relative intensity	assigned
51.0229	36	C4H3+
52.0308	30	C4H4+
53.0386	36	C4H5+
55.0543	33	C4H7+
57.0699	33	C4H9+
65.0386	157	C5H5+
66.0464	35	C5H6+
67.0417	31	C4H5N+
67.0542	43	C5H7+
69.0699	32	C5H9+
71.0856	19	C5H11+
77.0386	40	C6H5+
78.0338	33	C5H4N+
79.0417	43	C5H5N+
79.0542	104	C6H7+
80.0494	50	C5H6N+
81.0335	86	C5H5O+
81.0699	28	C6H9+
83.0856	30	C6H11+
89.0385	24	C7H5+
91.0542	35	C7H7+
92.0495	75	C6H6N+
93.0573	39	C6H7N+
94.0652	19	C6H8N+
95.0491	90	C6H7O+
95.0856	25	C7H11+
96.0444	49	C5H6NO+
97.1013	26	C7H13+
106.0651	350	C7H8N+
107.0729	253	C7H9N+
108.0808	105	C7H10N+
109.1012	18	C8H13+
110.0601	32	C6H8NO+
115.0543	45	C9H7+
122.06	26	C7H8NO+
128.062	21	C10H8+
135.0441	21	C8H7O2+
136.0757	999	C8H10NO+
137.0791	84	C3H12F3O2+
185.0646	31	C9H9F2NO+
190.0473	34	C8H7F3NO+
201.0545	26	C10H11F2S+
205.0708	720	C9H10F3NO+
206.0742	71	C9H12F2O3+
220.058	46	C9H9F3NO2+
284.0564	371	C10H13F3NO3S+
