Mass spectrum: KU60648_BTP_M14; LC-ESI-FT; MS2; CE: 25,60,100%; R=17500; [M+H]+
Name: KU60648_BTP_M14
Name: N-[4-(2-morpholin-4-yl-4-oxochromen-8-yl)dibenzothiophen-1-yl]-2-piperazin-1-ylacetamide
Formula: C31H30N4O4S
Exact mass: 554.1988
SMILES: O=C1C=C(OC2=C1C=CC=C2C3=C4SC5=CC=CC=C5C4=C(C=C3)N([H])C(CN6CCNCC6)=O)N7CCOCC7
InChI: InChI=1S/C31H30N4O4S/c36-25-18-28(35-14-16-38-17-15-35)39-30-20(5-3-6-22(25)30)21-8-9-24(33-27(37)19-34-12-10-32-11-13-34)29-23-4-1-2-7-26(23)40-31(21)29/h1-9,18,32H,10-17,19H2,(H,33,37)
Instrument: Dionex Ultimate 3000 UHPLC Thermo Scientific; Q Exactive Focus Orbitrap MS Thermo Scientific
Instrument type: LC-ESI-FT
Ms type: MS2
Ion mode: POSITIVE
Ionization: ESI
Fragmentation mode: HCD
Collision energy: 25,60,100% (stepped)
Resolution: 17500
Column name: Accucore 150 Amide, 2.6um, 2.1x100mm, Thermo Scientific
Retention time: 0.082 min
Base peak: 555.206
Precursor m/z: 555.2061
Precursor type: [M+H]+
m/z	relative intensity	assigned
56.0495	139	C3H6N+
70.0651	183	C4H8N+
84.0682	54	C4H8N2+
89.0597	6	C4H9O2+
99.0917	267	C5H11N2+
112.0758	54	C6H10NO+
112.0762	14	C6H10NO+
133.0854	4	C6H13O3+
133.086	5	C6H13O3+
179.0405	3	C9H9NOS+
245.0411	49	C17H9S+
245.042	11	C17H9S+
258.0494	44	C18H10S+
260.0519	111	C17H10NS+
260.0526	46	C17H10NS+
260.0534	17	C17H10NS+
261.0579	38	C14H13O3S+
262.0679	89	C17H12NS+
262.0685	79	C17H12NS+
272.0509	80	C15H12O3S+
272.0518	99	C18H10NS+
272.0526	58	C18H10NS+
272.0531	62	C18H10NS+
273.0601	106	C18H11NS+
273.0607	45	C18H11NS+
274.0391	20	C19H4N3+
274.0413	80	C21H6O+
274.0434	53	C16H8N3S+
274.0668	48	C15H14O3S+
274.0679	52	C18H12NS+
274.0687	57	C18H12NS+
274.0701	39	C12H10N4O4+
371.085	12	C22H15N2O2S+
371.0865	42	C30H11+
428.1159	20	C28H16N2O3+
428.1197	30	C25H20N2O3S+
429.1265	293	C25H21N2O3S+
430.1296	102	C28H18N2O3+
430.1309	51	C28H18N2O3+
439.1109	38	C26H19N2O3S+
441.1242	18	C29H17N2O3+
441.1267	220	C26H21N2O3S+
441.1289	95	C26H21N2O3S+
442.1299	67	C29H18N2O3+
442.1316	91	C29H18N2O3+
455.1039	23	C26H19N2O4S+
455.1052	65	C26H19N2O4S+
455.1072	35	C26H19N2O4S+
555.2063	999	C31H31N4O4S+
