Mass spectrum: omeprazole_BTP_M2; LC-ESI-FT; MS2; CE: 25,60,100%; R=17500; [M+H]+
Name: omeprazole_BTP_M2
Name: Hydroxyomeprazole
Name: [4-methoxy-6-[(6-methoxy-1H-benzimidazol-2-yl)sulfinylmethyl]-5-methylpyridin-3-yl]methanol
Formula: C17H19N3O4S
Exact mass: 361.1096
SMILES: CC1=C(C(=CN=C1CS(=O)C2=NC3=C(N2)C=C(C=C3)OC)CO)OC
InChI: InChI=1S/C17H19N3O4S/c1-10-15(18-7-11(8-21)16(10)24-3)9-25(22)17-19-13-5-4-12(23-2)6-14(13)20-17/h4-7,21H,8-9H2,1-3H3,(H,19,20)
Instrument: Dionex Ultimate 3000 UHPLC Thermo Scientific; Q Exactive Focus Orbitrap MS Thermo Scientific
Instrument type: LC-ESI-FT
Ms type: MS2
Ion mode: POSITIVE
Ionization: ESI
Fragmentation mode: HCD
Collision energy: 25,60,100% (stepped)
Resolution: 17500
Column name: Accucore 150 Amide, 2.6um, 2.1x100mm, Thermo Scientific
Retention time: 0.012 min
Base peak: 362.1168
Precursor m/z: 362.1169
Precursor type: [M+H]+
m/z	relative intensity	assigned
53.0385	57	C4H5+
65.0385	41	C5H5+
67.0542	27	C5H7+
77.0386	23	C6H5+
79.0542	38	C6H7+
80.0495	47	C5H6N+
94.0651	91	C6H8N+
95.0491	44	C6H7O+
105.0447	28	C6H5N2+
106.0525	30	C6H6N2+
106.0651	88	C7H8N+
108.0807	19	C7H10N+
108.998	23	C5H3NS+
120.0808	52	C8H10N+
121.0886	215	C8H11N+
122.06	33	C7H8NO+
122.092	16	C3H12N3O2+
123.0679	18	C7H9NO+
124.0757	38	C7H10NO+
135.0138	21	C7H5NS+
136.0758	19	C8H10NO+
138.0914	35	C8H12NO+
149.071	341	C8H9N2O+
152.0706	495	C8H10NO2+
153.074	41	C3H11N3O4+
166.0862	47	C9H12NO2+
167.0941	313	C9H13NO2+
168.0656	25	C8H10NO3+
168.0975	31	C4H14N3O4+
179.0274	155	C8H7N2OS+
182.0812	28	C9H12NO3+
184.0968	304	C9H14NO3+
185.1002	28	C10H17OS+
196.0426	250	C9H10NO2S+
197.0495	32	C9H11NO2S+
214.0532	999	C9H12NO3S+
