Mass spectrum: KU60648_BTP_M9; LC-ESI-FT; MS2; CE: 25,60,100%; R=17500; [M+H]+
Name: KU60648_BTP_M9
Formula: C33H36N4O5S
Exact mass: 600.2406
SMILES: OCCN(CCO)C1=CC(C2=C(O1)C(C3=C(SC4=CC=CC=C45)C5=C(N(C(CN6CCN(CC)CC6)=O)[H])C=C3)=CC=C2)=O
InChI: InChI=1S/C33H36N4O5S/c1-2-35-12-14-36(15-13-35)21-29(41)34-26-11-10-23(33-31(26)25-6-3-4-9-28(25)43-33)22-7-5-8-24-27(40)20-30(42-32(22)24)37(16-18-38)17-19-39/h3-11,20,38-39H,2,12-19,21H2,1H3,(H,34,41)
Instrument: Dionex Ultimate 3000 UHPLC Thermo Scientific; Q Exactive Focus Orbitrap MS Thermo Scientific
Instrument type: LC-ESI-FT
Ms type: MS2
Ion mode: POSITIVE
Ionization: ESI
Fragmentation mode: HCD
Collision energy: 25,60,100% (stepped)
Resolution: 17500
Column name: Accucore 150 Amide, 2.6um, 2.1x100mm, Thermo Scientific
Retention time: 0.087 min
Base peak: 601.2479
Precursor m/z: 601.2479
Precursor type: [M+H]+
m/z	relative intensity	assigned
56.0495	115	C3H6N+
60.0808	93	C3H10N+
70.0651	820	C4H8N+
71.0729	193	C4H9N+
84.0808	904	C5H10N+
86.0964	246	C5H12N+
97.0761	76	C5H9N2+
98.0839	192	C5H10N2+
104.1069	58	C5H14NO+
104.1075	59	C5H14NO+
112.0996	121	C6H12N2+
127.123	563	C7H15N2+
128.1267	83	C2H16N4O2+
177.0435	223	C4H9N4O2S+
179.0407	78	C3H7N4O5+
184.0733	60	C9H12O4+
203.9774	66	C12N2S+
244.0395	71	C16H6NO2+
262.0499	241	C16H8NO3+
263.0519	178	C17H11OS+
283.0497	193	C10H11N4O4S+
283.0507	143	C12H13NO5S+
285.0465	135	C15H11NO3S+
285.0475	103	C18H9N2S+
336.0521	89	C21H8N2O3+
336.0545	91	C21H8N2O3+
338.0499	80	C21H10N2OS+
601.248	999	C33H37N4O5S+
