Mass spectrum: Amitriptyline; LC-ESI-FT; MS2; CE: 20,40,130%; R=30000; [M+H]+
Name: Amitriptyline
Name: N,N-dimethyl-3-(2-tricyclo[9.4.0.03,8]pentadeca-1(15),3,5,7,11,13-hexaenylidene)propan-1-amine
Class: Non-Natural Product; Pharmaceutical drug
Formula: C20H23N
Exact mass: 277.1830
SMILES: CN(C)CCC=C1C2=CC=CC=C2CCC3=CC=CC=C31
InChI: InChI=1S/C20H23N/c1-21(2)15-7-12-20-18-10-5-3-8-16(18)13-14-17-9-4-6-11-19(17)20/h3-6,8-12H,7,13-15H2,1-2H3
Instrument: Vanquish Horizon UHPLC Thermo Scientific; Orbitrap ID-X Tribrid MS Thermo Scientific
Instrument type: LC-ESI-FT
Ms type: MS2
Ion mode: POSITIVE
Ionization: ESI
Fragmentation mode: HCD
Collision energy: 20,40,130% (stepped)
Resolution: 30000
Column name: Accucore 150 Amide, 2.6um, 2.1x100mm, Thermo Scientific
Retention time: 0.018 min
Base peak: 278.1902
Precursor m/z: 278.1903
Precursor type: [M+H]+
m/z	relative intensity	assigned
51.023	82	C4H3+
58.0651	98	C3H8N+
63.0229	10	C5H3+
65.0386	218	C5H5+
77.0386	79	C6H5+
79.0543	13	C6H7+
84.0808	198	C5H10N+
89.0386	48	C7H5+
91.0542	999	C7H7+
102.0465	10	C8H6+
103.0543	11	C8H7+
105.0699	657	C8H9+
115.0542	265	C9H7+
117.0699	583	C9H9+
126.0463	16	C10H6+
127.0541	21	C10H7+
128.062	134	C10H8+
129.0699	80	C10H9+
139.0543	28	C11H7+
141.0699	26	C11H9+
152.0621	93	C12H8+
155.0855	144	C12H11+
163.0541	14	C13H7+
164.062	14	C13H8+
165.0699	69	C13H9+
176.062	61	C14H8+
177.0699	16	C14H9+
178.0777	87	C14H10+
179.0855	77	C14H11+
189.0699	131	C15H9+
191.0855	189	C15H11+
193.1012	32	C15H13+
205.1011	90	C16H13+
215.0856	46	C17H11+
218.1091	75	C17H14+
233.1326	214	C18H17+
278.1904	464	C20H24N+
