Mass spectrum: lansoprazole_BTP_M2; LC-ESI-FT; MS2; CE: 25,60,100%; R=17500; [M+H]+
Name: lansoprazole_BTP_M2
Formula: C8H11NO3S
Exact mass: 201.0460
SMILES: CC1=C(O)C=CN=C1CS(CO)=O
InChI: InChI=1S/C8H11NO3S/c1-6-7(4-13(12)5-10)9-3-2-8(6)11/h2-3,10H,4-5H2,1H3,(H,9,11)
Instrument: Dionex Ultimate 3000 UHPLC Thermo Scientific; Q Exactive Focus Orbitrap MS Thermo Scientific
Instrument type: LC-ESI-FT
Ms type: MS2
Ion mode: POSITIVE
Ionization: ESI
Fragmentation mode: HCD
Collision energy: 25,60,100% (stepped)
Resolution: 17500
Column name: Accucore 150 Amide, 2.6um, 2.1x100mm, Thermo Scientific
Retention time: 0.018 min
Base peak: 202.0532
Precursor m/z: 202.0532
Precursor type: [M+H]+
m/z	relative intensity	assigned
94.065	513	C6H8N+
102.0464	336	C8H6+
123.0678	999	C7H9NO+
