Mass spectrum: KU60648_BTP_M20; LC-ESI-FT; MS2; CE: 25,60,100%; R=17500; [M+H]+
Name: KU60648_BTP_M20
Formula: C33H30N4O6S
Exact mass: 610.1886
Instrument: Dionex Ultimate 3000 UHPLC Thermo Scientific; Q Exactive Focus Orbitrap MS Thermo Scientific
Instrument type: LC-ESI-FT
Ms type: MS2
Ion mode: POSITIVE
Ionization: ESI
Fragmentation mode: HCD
Collision energy: 25,60,100% (stepped)
Resolution: 17500
Column name: Accucore 150 Amide, 2.6um, 2.1x100mm, Thermo Scientific
Retention time: 0.012 min
Base peak: 611.1959
Precursor m/z: 611.1959
Precursor type: [M+H]+
m/z	relative intensity	assigned
70.0651	209	C4H8N+
91.0572	64	C4H11S+
99.0917	338	C5H11N2+
260.0525	192	C17H10NS+
260.0535	236	C17H10NS+
272.0526	150	C18H10NS+
273.0577	80	C15H13O3S+
288.0467	168	C18H10NOS+
288.0481	248	C18H10NOS+
429.1242	128	C31H15N3+
429.1265	242	C31H15N3+
441.1262	230	C32H15N3+
455.1062	741	C26H19N2O4S+
456.1088	227	C21H20N4O6S+
485.1131	107	C30H17N2O5+
485.1166	111	C27H21N2O5S+
512.1257	96	C33H20O6+
611.1953	999	C33H31N4O6S+
