Mass spectrum: sunitinib_BTP_M2; LC-ESI-FT; MS2; CE: 25,60,100%; R=17500; [M+H]+
Name: sunitinib_BTP_M2
Name: N,N-diethyl-2-[[5-[(5-fluoro-2-oxo-1H-indol-3-ylidene)methyl]-2,4-dimethyl-1H-pyrrole-3-carbonyl]amino]ethanamine oxide
Formula: C22H27FN4O3
Exact mass: 414.2067
SMILES: CC[N+](CC)(CCNC(=O)C1=C(NC(=C1C)C=C2C3=C(C=CC(=C3)F)NC2=O)C)[O-]
InChI: InChI=1S/C22H27FN4O3/c1-5-27(30,6-2)10-9-24-22(29)20-13(3)19(25-14(20)4)12-17-16-11-15(23)7-8-18(16)26-21(17)28/h7-8,11-12,25H,5-6,9-10H2,1-4H3,(H,24,29)(H,26,28)
Instrument: Dionex Ultimate 3000 UHPLC Thermo Scientific; Q Exactive Focus Orbitrap MS Thermo Scientific
Instrument type: LC-ESI-FT
Ms type: MS2
Ion mode: POSITIVE
Ionization: ESI
Fragmentation mode: HCD
Collision energy: 25,60,100% (stepped)
Resolution: 17500
Column name: Accucore 150 Amide, 2.6um, 2.1x100mm, Thermo Scientific
Retention time: 0.058 min
Base peak: 415.2138
Precursor m/z: 415.214
Precursor type: [M+H]+
m/z	relative intensity	assigned
86.0961	60	FH11N4+
86.0964	47	C5H12N+
100.1118	26	CH13FN4+
157.0448	17	C11H6F+
183.0602	49	C13H8F+
183.0606	53	C13H8F+
184.0552	62	C12H7FN+
184.0558	22	C12H7FN+
185.0637	129	C12H8FN+
185.0639	77	C12H8FN+
186.0708	34	C12H9FN+
189.0456	34	C10H6FN2O+
189.0461	63	C10H6FN2O+
198.0715	30	C13H9FN+
208.0552	21	C14H7FN+
208.0559	43	C14H7FN+
209.0633	132	C14H8FN+
209.0637	75	C14H8FN+
210.0719	81	C14H9FN+
210.0723	74	C14H9FN+
211.0661	57	C13H8FN2+
214.0658	63	C13H9FNO+
214.0662	57	C13H9FNO+
214.067	40	C13H9FNO+
227.0971	74	C14H12FN2+
227.0978	46	C14H12FN2+
227.0986	64	C14H12FN2+
237.0817	71	C15H10FN2+
237.0826	45	C15H10FN2+
238.0649	169	C13H7FN4+
238.0657	78	C18H8N+
239.0855	66	C19H11+
240.0677	17	C17H8N2+
240.0686	45	C17H8N2+
253.0755	29	C18H9N2+
253.0774	32	C15H10FN2O+
254.109	72	C20H14+
255.0923	86	C15H12FN2O+
282.1057	71	C18H15FO2+
283.0876	371	C16H12FN2O2+
284.0905	68	C14H12N4O3+
284.0913	50	C14H12N4O3+
299.0819	66	C19H11N2O2+
299.0828	72	C16H12FN2O3+
324.1142	57	C18H15FN3O2+
326.1298	999	C18H17FN3O2+
342.1239	44	C21H16N3O2+
342.1251	23	C18H17FN3O3+
