Mass spectrum: Sunitinib; LC-ESI-FT; MS2; CE: 25,60,100%; R=17500; [M+H]+
Name: Sunitinib
Name: N-[2-(diethylamino)ethyl]-5-[(Z)-(5-fluoro-2-oxo-1H-indol-3-ylidene)methyl]-2,4-dimethyl-1H-pyrrole-3-carboxamide
Class: Non-Natural Product; Pharmaceutical drug
Formula: C22H27FN4O2
Exact mass: 398.2118
SMILES: CCN(CC)CCNC(=O)C1=C(NC(=C1C)/C=C\2/C3=C(C=CC(=C3)F)NC2=O)C
InChI: InChI=1S/C22H27FN4O2/c1-5-27(6-2)10-9-24-22(29)20-13(3)19(25-14(20)4)12-17-16-11-15(23)7-8-18(16)26-21(17)28/h7-8,11-12,25H,5-6,9-10H2,1-4H3,(H,24,29)(H,26,28)/b17-12-
Instrument: Dionex Ultimate 3000 UHPLC Thermo Scientific; Q Exactive Focus Orbitrap MS Thermo Scientific
Instrument type: LC-ESI-FT
Ms type: MS2
Ion mode: POSITIVE
Ionization: ESI
Fragmentation mode: HCD
Collision energy: 25,60,100 (stepped)
Resolution: 17500
Column name: Accucore 150 Amide, 2.6um, 2.1x100mm, Thermo Scientific
Retention time: 0.040 min
Base peak: 399.2191
Precursor m/z: 399.2191
Precursor type: [M+H]+
m/z	relative intensity	assigned
65.0386	54	C5H5+
133.0448	70	C9H6F+
146.0401	60	C9H5FN+
148.0555	65	C9H7FN+
150.0351	69	C8H5FNO+
157.0449	63	C11H6F+
158.0402	41	C10H5FN+
163.0543	74	C13H7+
164.0493	100	C12H6N+
164.0502	49	C12H6N+
170.0523	58	C12H7F+
171.0355	48	C10H4FN2+
172.0565	49	C11H7FN+
183.0605	123	C13H8F+
184.0553	116	C12H7FN+
184.056	139	C12H7FN+
185.0636	248	C12H8FN+
186.0705	147	C12H9FN+
186.0713	56	C12H9FN+
187.0549	77	C12H8FO+
189.0448	40	C13H5N2+
189.0457	115	C13H5N2+
190.0651	51	C14H8N+
195.0479	61	C13H6FN+
196.055	97	C13H7FN+
198.0712	61	C13H9FN+
200.0874	56	C13H11FN+
208.0558	100	C14H7FN+
209.0633	185	C14H8FN+
210.0717	204	C14H9FN+
211.0657	59	C13H8FN2+
214.066	123	C13H9FNO+
227.0977	95	C14H12FN2+
227.0984	69	C14H12FN2+
228.082	49	C14H11FNO+
236.0744	49	C15H9FN2+
237.0823	89	C15H10FN2+
238.0661	283	C15H9FNO+
240.0692	72	C14H9FN2O+
255.0936	96	C15H12FN2O+
283.0908	999	C21H12F+
284.094	119	C19H12N2O+
326.1296	642	C18H17FN3O2+
