Mass spectrum: KU60648_BTP_M10; LC-ESI-FT; MS2; CE: 25,60,100%; R=17500; [M+H]+
Name: KU60648_BTP_M10
Formula: C31H28N2O9S
Exact mass: 604.1516
SMILES: O=C1C=C(N2CCOCC2)OC3=C1C=CC=C3C4=C(SC5=CC=CC=C56)C6=C(N(C7C(O)C(O)C(O)C(C(O)=O)O7)[H])C=C4
InChI: InChI=1S/C31H28N2O9S/c34-20-14-22(33-10-12-40-13-11-33)41-27-15(5-3-6-17(20)27)16-8-9-19(23-18-4-1-2-7-21(18)43-29(16)23)32-30-26(37)24(35)25(36)28(42-30)31(38)39/h1-9,14,24-26,28,30,32,35-37H,10-13H2,(H,38,39)
Instrument: Dionex Ultimate 3000 UHPLC Thermo Scientific; Q Exactive Focus Orbitrap MS Thermo Scientific
Instrument type: LC-ESI-FT
Ms type: MS2
Ion mode: POSITIVE
Ionization: ESI
Fragmentation mode: HCD
Collision energy: 25,60,100% (stepped)
Resolution: 17500
Column name: Accucore 150 Amide, 2.6um, 2.1x100mm, Thermo Scientific
Retention time: 0.092 min
Base peak: 605.1588
Precursor m/z: 605.1588
Precursor type: [M+H]+
m/z	relative intensity	assigned
112.0757	110	C6H10NO+
234.0494	32	C16H10S+
245.0411	103	C17H9S+
245.0419	80	C17H9S+
247.0573	179	C17H11S+
247.0578	121	C17H11S+
258.048	103	C9H10N2O7+
258.0493	104	C18H10S+
258.05	94	C18H10S+
259.0557	91	C9H11N2O7+
259.0571	37	C9H11N2O7+
260.0518	191	C10H12O8+
260.053	186	C17H10NS+
261.0564	141	C20H7N+
261.0573	97	C20H7N+
262.068	145	C10H14O8+
262.0685	74	C17H12NS+
272.0508	43	C15H12O3S+
272.0518	94	C11H12O8+
272.0528	128	C18H10NS+
272.0539	43	C18H10NS+
273.0599	201	C11H13O8+
273.0605	70	C11H13O8+
274.0403	84	C13H10N2O3S+
274.0411	161	C21H6O+
274.0433	99	C9H10N2O8+
274.0676	66	C18H12NS+
274.0698	161	C14H12NO5+
274.0704	86	C14H12NO5+
286.0682	106	C12H14O8+
286.0687	100	C19H12NS+
289.0549	116	C11H13O9+
289.0556	53	C18H11NOS+
290.0616	126	C15H14O4S+
290.0634	110	C18H12NOS+
303.0455	77	C10H11N2O9+
303.0465	117	C10H11N2O9+
303.0488	18	C19H11O2S+
317.0499	91	C19H11NO2S+
317.0508	121	C19H11NO2S+
318.0564	49	C16H14O5S+
318.0574	125	C19H12NO2S+
356.0734	82	C22H14NO2S+
371.0837	68	C22H15N2O2S+
371.0847	153	C22H15N2O2S+
372.0863	94	C22H14NO5+
372.0883	92	C16H20O8S+
372.0903	159	C19H18NO5S+
428.1165	27	C22H22NO6S+
428.1187	297	C25H20N2O3S+
428.1206	26	C25H20N2O3S+
429.1259	282	C25H21N2O3S+
430.1276	34	C25H20NO6+
430.1296	128	C19H26O9S+
430.1303	149	C19H26O9S+
441.1263	187	C26H21N2O3S+
441.127	110	C26H21N2O3S+
442.1265	145	C26H20NO6+
442.1302	134	C29H18N2O3+
442.1318	69	C23H24NO6S+
471.1374	498	C27H23N2O4S+
472.1372	48	C27H22NO7+
472.1401	136	C27H22NO7+
472.1407	240	C27H22NO7+
605.1588	999	C31H29N2O9S+
