Mass spectrum: KU60648_BTP_M19; LC-ESI-FT; MS2; CE: 25,60,100%; R=17500; [M+H]+
Name: KU60648_BTP_M19
Formula: C33H30N4O5S
Exact mass: 594.1937
Instrument: Dionex Ultimate 3000 UHPLC Thermo Scientific; Q Exactive Focus Orbitrap MS Thermo Scientific
Instrument type: LC-ESI-FT
Ms type: MS2
Ion mode: POSITIVE
Ionization: ESI
Fragmentation mode: HCD
Collision energy: 25,60,100% (stepped)
Resolution: 17500
Column name: Accucore 150 Amide, 2.6um, 2.1x100mm, Thermo Scientific
Retention time: 0.012 min
Base peak: 595.2009
Precursor m/z: 595.201
Precursor type: [M+H]+
m/z	relative intensity	assigned
68.0131	60	C3H2NO+
94.0286	47	C5H4NO+
112.0757	62	C6H10NO+
113.1072	54	C6H13N2+
141.1023	64	C7H13N2O+
180.1018	79	C10H14NO2+
260.0507	74	C14H12O3S+
260.0521	172	C17H10NS+
260.0524	170	C17H10NS+
261.0556	66	C12H11N3O2S+
261.0575	55	C12H11N3O2S+
272.0512	71	C15H12O3S+
272.0522	103	C18H10NS+
272.0529	79	C18H10NS+
273.0571	41	C21H7N+
273.0586	50	C15H13O3S+
273.0594	66	C18H11NS+
273.0609	74	C18H11NS+
274.0435	55	C16H8N3S+
274.0445	55	C18H10OS+
288.0475	163	C18H10NOS+
288.0489	92	C12H8N4O5+
289.0516	68	C15H13O4S+
289.0528	60	C15H13O4S+
289.0537	62	C15H13O4S+
302.0637	55	C19H12NOS+
303.1704	41	C17H23N2O3+
344.035	73	C18H8N4O2S+
344.0363	66	C18H8N4O2S+
344.0377	54	C18H8N4O2S+
371.0855	55	C30H11+
371.0867	50	C30H11+
371.0887	60	C27H15S+
411.0766	66	C27H11N2O3+
411.0799	57	C24H15N2O3S+
411.0804	76	C32H11O+
427.1218	53	C24H19N4O2S+
427.124	56	C26H21NO3S+
428.1179	68	C25H20N2O3S+
428.1194	102	C33H16O+
428.121	84	C33H16O+
429.1237	55	C28H17N2O3+
429.1249	52	C28H17N2O3+
441.1259	53	C26H21N2O3S+
441.1284	52	C26H21N2O3S+
455.1059	647	C26H19N2O4S+
456.1084	190	C29H16N2O4+
456.1094	203	C29H16N2O4+
469.1185	99	C30H17N2O4+
469.1206	165	C33H15N3O+
469.1217	163	C27H21N2O4S+
469.1231	83	C27H21N2O4S+
470.124	60	C30H18N2O4+
470.126	52	C30H18N2O4+
470.1281	65	C30H18N2O4+
512.1253	65	C28H22N3O5S+
512.1279	55	C28H22N3O5S+
595.201	999	C33H31N4O5S+
