Mass spectrum: KU60648_BTP_M6; LC-ESI-FT; MS2; CE: 25,60,100%; R=17500; [M+H]+
Name: KU60648_BTP_M6
Formula: C27H22N2O6S
Exact mass: 502.1199
Instrument: Dionex Ultimate 3000 UHPLC Thermo Scientific; Q Exactive Focus Orbitrap MS Thermo Scientific
Instrument type: LC-ESI-FT
Ms type: MS2
Ion mode: POSITIVE
Ionization: ESI
Fragmentation mode: HCD
Collision energy: 25,60,100% (stepped)
Resolution: 17500
Column name: Accucore 150 Amide, 2.6um, 2.1x100mm, Thermo Scientific
Retention time: 0.013 min
Base peak: 503.127
Precursor m/z: 503.1271
Precursor type: [M+H]+
m/z	relative intensity	assigned
55.0542	348	C4H7+
57.0699	324	C4H9+
67.0542	365	C5H7+
79.0542	350	C6H7+
97.0759	353	C5H9N2+
260.0513	318	C14H12O3S+
260.0527	371	C17H10NS+
429.1251	327	C25H21N2O3S+
429.1276	413	C25H21N2O3S+
457.1218	350	C26H21N2O4S+
485.1164	473	C27H21N2O5S+
503.1274	999	C27H23N2O6S+
