Mass spectrum: amitriptyline_BTP_M3; LC-ESI-FT; MS2; CE: 25,60,100%; R=17500; [M+H]+
Name: amitriptyline_BTP_M3
Name: Nortriptyline
Name: N-methyl-3-(2-tricyclo[9.4.0.03,8]pentadeca-1(15),3,5,7,11,13-hexaenylidene)propan-1-amine
Formula: C19H21N
Exact mass: 263.1674
SMILES: CNCCC=C1C2=CC=CC=C2CCC3=CC=CC=C31
InChI: InChI=1S/C19H21N/c1-20-14-6-11-19-17-9-4-2-7-15(17)12-13-16-8-3-5-10-18(16)19/h2-5,7-11,20H,6,12-14H2,1H3
Instrument: Dionex Ultimate 3000 UHPLC Thermo Scientific; Q Exactive Focus Orbitrap MS Thermo Scientific
Instrument type: LC-ESI-FT
Ms type: MS2
Ion mode: POSITIVE
Ionization: ESI
Fragmentation mode: HCD
Collision energy: 25,60,100% (stepped)
Resolution: 17500
Column name: Accucore 150 Amide, 2.6um, 2.1x100mm, Thermo Scientific
Retention time: 0.020 min
Base peak: 264.1745
Precursor m/z: 264.1747
Precursor type: [M+H]+
m/z	relative intensity	assigned
51.023	466	C4H3+
65.0386	356	C5H5+
70.0651	294	C4H8N+
91.0542	581	C7H7+
105.0699	427	C8H9+
115.0543	140	C9H7+
117.0699	331	C9H9+
128.0621	578	C10H8+
129.07	725	C10H9+
152.0621	712	C12H8+
155.0856	241	C12H11+
165.0699	512	C13H9+
178.0778	815	C14H10+
179.0855	579	C14H11+
189.0699	999	C15H9+
191.0855	299	C15H11+
205.1011	845	C16H13+
218.1091	837	C17H14+
233.1325	163	C18H17+
264.1746	218	C19H22N+
