Mass spectrum: omeprazole_BTP_M4; LC-ESI-FT; MS2; CE: 25,60,100%; R=17500; [M+H]+
Name: omeprazole_BTP_M4
Name: Omeprazole Sulfone N-Oxide
Name: 6-methoxy-2-[(4-methoxy-3,5-dimethyl-1-oxidopyridin-1-ium-2-yl)methylsulfonyl]-1H-benzimidazole
Formula: C17H19N3O5S
Exact mass: 377.1045
SMILES: CC1=C[N+](=C(C(=C1OC)C)CS(=O)(=O)C2=NC3=C(N2)C=C(C=C3)OC)[O-]
InChI: InChI=1S/C17H19N3O5S/c1-10-8-20(21)15(11(2)16(10)25-4)9-26(22,23)17-18-13-6-5-12(24-3)7-14(13)19-17/h5-8H,9H2,1-4H3,(H,18,19)
Instrument: Dionex Ultimate 3000 UHPLC Thermo Scientific; Q Exactive Focus Orbitrap MS Thermo Scientific
Instrument type: LC-ESI-FT
Ms type: MS2
Ion mode: POSITIVE
Ionization: ESI
Fragmentation mode: HCD
Collision energy: 25,60,100% (stepped)
Resolution: 17500
Column name: Accucore 150 Amide, 2.6um, 2.1x100mm, Thermo Scientific
Retention time: 0.010 min
Base peak: 378.1118
Precursor m/z: 378.1118
Precursor type: [M+H]+
m/z	relative intensity	assigned
89.0596	162	C4H9O2+
94.065	191	C6H8N+
106.0523	141	C6H6N2+
149.0709	999	C8H9N2O+
166.0862	611	C9H12NO2+
195.1226	183	C8H19O5+
230.0481	293	C9H12NO4S+
