Mass spectrum: lansoprazole_BTP_M9; LC-ESI-FT; MS2; CE: 25,60,100%; R=17500; [M+H]+
Name: lansoprazole_BTP_M9
Formula: C22H22F3N3O8S
Exact mass: 545.1080
Instrument: Dionex Ultimate 3000 UHPLC Thermo Scientific; Q Exactive Focus Orbitrap MS Thermo Scientific
Instrument type: LC-ESI-FT
Ms type: MS2
Ion mode: POSITIVE
Ionization: ESI
Fragmentation mode: HCD
Collision energy: 25,60,100% (stepped)
Resolution: 17500
Column name: Accucore 150 Amide, 2.6um, 2.1x100mm, Thermo Scientific
Retention time: 0.093 min
Base peak: 546.1154
Precursor m/z: 546.1152
Precursor type: [M+H]+
m/z	relative intensity	assigned
135.0551	339	C7H7N2O+
236.0352	353	C9H9F3NOS+
370.0834	999	C18H13FN3O5+
