Mass spectrum: sunitinib_BTP_M8; LC-ESI-FT; MS2; CE: 25,60,100%; R=17500; [M+H]+
Name: sunitinib_BTP_M8
Name: N-[2-(diethylamino)ethyl]-5-[(5-hydroxy-2-oxo-1H-indol-3-ylidene)methyl]-2,4-dimethyl-1H-pyrrole-3-carboxamide
Formula: C22H28N4O3
Exact mass: 396.2161
SMILES: CCN(CC)CCNC(=O)C1=C(NC(=C1C)C=C2C3=C(C=CC(=C3)O)NC2=O)C
InChI: InChI=1S/C22H28N4O3/c1-5-26(6-2)10-9-23-22(29)20-13(3)19(24-14(20)4)12-17-16-11-15(27)7-8-18(16)25-21(17)28/h7-8,11-12,24,27H,5-6,9-10H2,1-4H3,(H,23,29)(H,25,28)
Instrument: Dionex Ultimate 3000 UHPLC Thermo Scientific; Q Exactive Focus Orbitrap MS Thermo Scientific
Instrument type: LC-ESI-FT
Ms type: MS2
Ion mode: POSITIVE
Ionization: ESI
Fragmentation mode: HCD
Collision energy: 25,60,100% (stepped)
Resolution: 17500
Column name: Accucore 150 Amide, 2.6um, 2.1x100mm, Thermo Scientific
Retention time: 0.060 min
Base peak: 397.2233
Precursor m/z: 397.2234
Precursor type: [M+H]+
m/z	relative intensity	assigned
85.0281	412	C4H5O2+
281.092	999	C16H13N2O3+
324.1341	355	C18H18N3O3+
