Mass spectrum: sunitinib_BTP_M5; LC-ESI-FT; MS2; CE: 25,60,100%; R=17500; [M+H]+
Name: sunitinib_BTP_M5
Formula: C22H27FN4O6S
Exact mass: 494.1635
Instrument: Dionex Ultimate 3000 UHPLC Thermo Scientific; Q Exactive Focus Orbitrap MS Thermo Scientific
Instrument type: LC-ESI-FT
Ms type: MS2
Ion mode: POSITIVE
Ionization: ESI
Fragmentation mode: HCD
Collision energy: 25,60,100% (stepped)
Resolution: 17500
Column name: Accucore 150 Amide, 2.6um, 2.1x100mm, Thermo Scientific
Retention time: 0.020 min
Base peak: 495.1707
Precursor m/z: 495.1708
Precursor type: [M+H]+
m/z	relative intensity	assigned
89.0593	145	C4H9O2+
271.0872	142	C12H17NO4S+
299.0823	999	C13H17NO5S+
300.0866	171	C16H14NO5+
342.1245	496	C15H22N2O5S+
379.0396	451	C16H12FN2O6S+
415.2153	201	C22H28FN4O3+
422.0805	303	C21H16N3O5S+
