Mass spectrum: acetaminophen_BTP_M3; LC-ESI-FT; MS2; CE: 25,60,100%; R=17500; [M+H]+
Name: acetaminophen_BTP_M3
Name: p-Acetamidophenylglucuronide
Name: 6-(4-acetamidophenoxy)-3,4,5-trihydroxyoxane-2-carboxylic acid
Formula: C14H17NO8
Exact mass: 327.0954
SMILES: CC(=O)NC1=CC=C(C=C1)OC2C(C(C(C(O2)C(=O)O)O)O)O
InChI: InChI=1S/C14H17NO8/c1-6(16)15-7-2-4-8(5-3-7)22-14-11(19)9(17)10(18)12(23-14)13(20)21/h2-5,9-12,14,17-19H,1H3,(H,15,16)(H,20,21)
Instrument: Dionex Ultimate 3000 UHPLC Thermo Scientific; Q Exactive Focus Orbitrap MS Thermo Scientific
Instrument type: LC-ESI-FT
Ms type: MS2
Ion mode: POSITIVE
Ionization: ESI
Fragmentation mode: HCD
Collision energy: 25,60,100% (stepped)
Resolution: 17500
Column name: Accucore 150 Amide, 2.6um, 2.1x100mm, Thermo Scientific
Retention time: 0.117 min
Base peak: 328.1026
Precursor m/z: 328.1027
Precursor type: [M+H]+
m/z	relative intensity	assigned
152.0706	999	C8H10NO2+
